
---------- Begin Simulation Statistics ----------
simSeconds                                   0.118808                       # Number of seconds simulated (Second)
simTicks                                 118808427500                       # Number of ticks simulated (Tick)
finalTick                                118808427500                       # Number of ticks from beginning of simulation (restored from checkpoints and never reset) (Tick)
simFreq                                  1000000000000                       # The number of ticks per simulated second ((Tick/Second))
hostSeconds                                   2968.49                       # Real time elapsed on the host (Second)
hostTickRate                                 40023220                       # The number of ticks simulated per host second (ticks/s) ((Tick/Second))
hostMemory                                     649072                       # Number of bytes of host memory used (Byte)
simInsts                                    701649707                       # Number of instructions simulated (Count)
simOps                                      769676021                       # Number of ops (including micro ops) simulated (Count)
hostInstRate                                   236366                       # Simulator instruction rate (inst/s) ((Count/Second))
hostOpRate                                     259282                       # Simulator op (including micro ops) rate (op/s) ((Count/Second))
system.clk_domain.clock                          1000                       # Clock period in ticks (Tick)
system.cpu.numCycles                        237616856                       # Number of cpu cycles simulated (Cycle)
system.cpu.numWorkItemsStarted                      0                       # Number of work items this cpu started (Count)
system.cpu.numWorkItemsCompleted                    0                       # Number of work items this cpu completed (Count)
system.cpu.instsAdded                       806362066                       # Number of instructions added to the IQ (excludes non-spec) (Count)
system.cpu.nonSpecInstsAdded                      175                       # Number of non-speculative instructions added to the IQ (Count)
system.cpu.instsIssued                      787274637                       # Number of instructions issued (Count)
system.cpu.squashedInstsIssued                2363805                       # Number of squashed instructions issued (Count)
system.cpu.squashedInstsExamined             36686219                       # Number of squashed instructions iterated over during squash; mainly for profiling (Count)
system.cpu.squashedOperandsExamined          96317585                       # Number of squashed operands that are examined and possibly removed from graph (Count)
system.cpu.squashedNonSpecRemoved                  90                       # Number of squashed non-spec instructions that were removed (Count)
system.cpu.numIssuedDist::samples           237559701                       # Number of insts issued each cycle (Count)
system.cpu.numIssuedDist::mean               3.314008                       # Number of insts issued each cycle (Count)
system.cpu.numIssuedDist::stdev              2.450750                       # Number of insts issued each cycle (Count)
system.cpu.numIssuedDist::underflows                0      0.00%      0.00% # Number of insts issued each cycle (Count)
system.cpu.numIssuedDist::0                  30121476     12.68%     12.68% # Number of insts issued each cycle (Count)
system.cpu.numIssuedDist::1                  34914992     14.70%     27.38% # Number of insts issued each cycle (Count)
system.cpu.numIssuedDist::2                  33255911     14.00%     41.38% # Number of insts issued each cycle (Count)
system.cpu.numIssuedDist::3                  34705454     14.61%     55.99% # Number of insts issued each cycle (Count)
system.cpu.numIssuedDist::4                  40626372     17.10%     73.09% # Number of insts issued each cycle (Count)
system.cpu.numIssuedDist::5                  18133519      7.63%     80.72% # Number of insts issued each cycle (Count)
system.cpu.numIssuedDist::6                  20152796      8.48%     89.20% # Number of insts issued each cycle (Count)
system.cpu.numIssuedDist::7                  11659326      4.91%     94.11% # Number of insts issued each cycle (Count)
system.cpu.numIssuedDist::8                   6677740      2.81%     96.92% # Number of insts issued each cycle (Count)
system.cpu.numIssuedDist::9                   2784570      1.17%     98.09% # Number of insts issued each cycle (Count)
system.cpu.numIssuedDist::10                  2996527      1.26%     99.36% # Number of insts issued each cycle (Count)
system.cpu.numIssuedDist::11                  1098902      0.46%     99.82% # Number of insts issued each cycle (Count)
system.cpu.numIssuedDist::12                   136012      0.06%     99.88% # Number of insts issued each cycle (Count)
system.cpu.numIssuedDist::13                   287547      0.12%    100.00% # Number of insts issued each cycle (Count)
system.cpu.numIssuedDist::14                     8542      0.00%    100.00% # Number of insts issued each cycle (Count)
system.cpu.numIssuedDist::15                        9      0.00%    100.00% # Number of insts issued each cycle (Count)
system.cpu.numIssuedDist::16                        3      0.00%    100.00% # Number of insts issued each cycle (Count)
system.cpu.numIssuedDist::17                        2      0.00%    100.00% # Number of insts issued each cycle (Count)
system.cpu.numIssuedDist::18                        1      0.00%    100.00% # Number of insts issued each cycle (Count)
system.cpu.numIssuedDist::19                        0      0.00%    100.00% # Number of insts issued each cycle (Count)
system.cpu.numIssuedDist::20                        0      0.00%    100.00% # Number of insts issued each cycle (Count)
system.cpu.numIssuedDist::21                        0      0.00%    100.00% # Number of insts issued each cycle (Count)
system.cpu.numIssuedDist::22                        0      0.00%    100.00% # Number of insts issued each cycle (Count)
system.cpu.numIssuedDist::23                        0      0.00%    100.00% # Number of insts issued each cycle (Count)
system.cpu.numIssuedDist::24                        0      0.00%    100.00% # Number of insts issued each cycle (Count)
system.cpu.numIssuedDist::overflows                 0      0.00%    100.00% # Number of insts issued each cycle (Count)
system.cpu.numIssuedDist::min_value                 0                       # Number of insts issued each cycle (Count)
system.cpu.numIssuedDist::max_value                18                       # Number of insts issued each cycle (Count)
system.cpu.numIssuedDist::total             237559701                       # Number of insts issued each cycle (Count)
system.cpu.statFuBusy::No_OpClass                   0      0.00%      0.00% # attempts to use FU when none available (Count)
system.cpu.statFuBusy::IntAlu                 1859173      2.12%      2.12% # attempts to use FU when none available (Count)
system.cpu.statFuBusy::IntMult                     29      0.00%      2.12% # attempts to use FU when none available (Count)
system.cpu.statFuBusy::IntDiv                       0      0.00%      2.12% # attempts to use FU when none available (Count)
system.cpu.statFuBusy::FloatAdd                  3397      0.00%      2.12% # attempts to use FU when none available (Count)
system.cpu.statFuBusy::FloatCmp                     0      0.00%      2.12% # attempts to use FU when none available (Count)
system.cpu.statFuBusy::FloatCvt                     3      0.00%      2.12% # attempts to use FU when none available (Count)
system.cpu.statFuBusy::FloatMult             14354975     16.34%     18.46% # attempts to use FU when none available (Count)
system.cpu.statFuBusy::FloatMultAcc           6451617      7.34%     25.80% # attempts to use FU when none available (Count)
system.cpu.statFuBusy::FloatDiv                    10      0.00%     25.80% # attempts to use FU when none available (Count)
system.cpu.statFuBusy::FloatMisc              2637146      3.00%     28.80% # attempts to use FU when none available (Count)
system.cpu.statFuBusy::FloatSqrt                    0      0.00%     28.80% # attempts to use FU when none available (Count)
system.cpu.statFuBusy::SimdAdd                    117      0.00%     28.80% # attempts to use FU when none available (Count)
system.cpu.statFuBusy::SimdAddAcc                   0      0.00%     28.80% # attempts to use FU when none available (Count)
system.cpu.statFuBusy::SimdAlu                     11      0.00%     28.80% # attempts to use FU when none available (Count)
system.cpu.statFuBusy::SimdCmp                     45      0.00%     28.80% # attempts to use FU when none available (Count)
system.cpu.statFuBusy::SimdCvt                      0      0.00%     28.80% # attempts to use FU when none available (Count)
system.cpu.statFuBusy::SimdMisc                    35      0.00%     28.80% # attempts to use FU when none available (Count)
system.cpu.statFuBusy::SimdMult                     0      0.00%     28.80% # attempts to use FU when none available (Count)
system.cpu.statFuBusy::SimdMultAcc                  0      0.00%     28.80% # attempts to use FU when none available (Count)
system.cpu.statFuBusy::SimdShift                  178      0.00%     28.80% # attempts to use FU when none available (Count)
system.cpu.statFuBusy::SimdShiftAcc                 0      0.00%     28.80% # attempts to use FU when none available (Count)
system.cpu.statFuBusy::SimdDiv                      0      0.00%     28.80% # attempts to use FU when none available (Count)
system.cpu.statFuBusy::SimdSqrt                     0      0.00%     28.80% # attempts to use FU when none available (Count)
system.cpu.statFuBusy::SimdFloatAdd                 0      0.00%     28.80% # attempts to use FU when none available (Count)
system.cpu.statFuBusy::SimdFloatAlu                 0      0.00%     28.80% # attempts to use FU when none available (Count)
system.cpu.statFuBusy::SimdFloatCmp                 0      0.00%     28.80% # attempts to use FU when none available (Count)
system.cpu.statFuBusy::SimdFloatCvt                 0      0.00%     28.80% # attempts to use FU when none available (Count)
system.cpu.statFuBusy::SimdFloatDiv                 0      0.00%     28.80% # attempts to use FU when none available (Count)
system.cpu.statFuBusy::SimdFloatMisc                0      0.00%     28.80% # attempts to use FU when none available (Count)
system.cpu.statFuBusy::SimdFloatMult                0      0.00%     28.80% # attempts to use FU when none available (Count)
system.cpu.statFuBusy::SimdFloatMultAcc             0      0.00%     28.80% # attempts to use FU when none available (Count)
system.cpu.statFuBusy::SimdFloatSqrt                0      0.00%     28.80% # attempts to use FU when none available (Count)
system.cpu.statFuBusy::SimdReduceAdd                0      0.00%     28.80% # attempts to use FU when none available (Count)
system.cpu.statFuBusy::SimdReduceAlu                0      0.00%     28.80% # attempts to use FU when none available (Count)
system.cpu.statFuBusy::SimdReduceCmp                0      0.00%     28.80% # attempts to use FU when none available (Count)
system.cpu.statFuBusy::SimdFloatReduceAdd            0      0.00%     28.80% # attempts to use FU when none available (Count)
system.cpu.statFuBusy::SimdFloatReduceCmp            0      0.00%     28.80% # attempts to use FU when none available (Count)
system.cpu.statFuBusy::SimdAes                      0      0.00%     28.80% # attempts to use FU when none available (Count)
system.cpu.statFuBusy::SimdAesMix                   0      0.00%     28.80% # attempts to use FU when none available (Count)
system.cpu.statFuBusy::SimdSha1Hash                 0      0.00%     28.80% # attempts to use FU when none available (Count)
system.cpu.statFuBusy::SimdSha1Hash2                0      0.00%     28.80% # attempts to use FU when none available (Count)
system.cpu.statFuBusy::SimdSha256Hash               0      0.00%     28.80% # attempts to use FU when none available (Count)
system.cpu.statFuBusy::SimdSha256Hash2              0      0.00%     28.80% # attempts to use FU when none available (Count)
system.cpu.statFuBusy::SimdShaSigma2                0      0.00%     28.80% # attempts to use FU when none available (Count)
system.cpu.statFuBusy::SimdShaSigma3                0      0.00%     28.80% # attempts to use FU when none available (Count)
system.cpu.statFuBusy::SimdPredAlu                  0      0.00%     28.80% # attempts to use FU when none available (Count)
system.cpu.statFuBusy::MemRead               42354510     48.20%     77.00% # attempts to use FU when none available (Count)
system.cpu.statFuBusy::MemWrite              20210782     23.00%    100.00% # attempts to use FU when none available (Count)
system.cpu.statFuBusy::FloatMemRead                 0      0.00%    100.00% # attempts to use FU when none available (Count)
system.cpu.statFuBusy::FloatMemWrite                0      0.00%    100.00% # attempts to use FU when none available (Count)
system.cpu.statFuBusy::IprAccess                    0      0.00%    100.00% # attempts to use FU when none available (Count)
system.cpu.statFuBusy::InstPrefetch                 0      0.00%    100.00% # attempts to use FU when none available (Count)
system.cpu.statIssuedInstType_0::No_OpClass           85      0.00%      0.00% # Number of instructions issued per FU type, per thread (Count)
system.cpu.statIssuedInstType_0::IntAlu     180035595     22.87%     22.87% # Number of instructions issued per FU type, per thread (Count)
system.cpu.statIssuedInstType_0::IntMult        93742      0.01%     22.88% # Number of instructions issued per FU type, per thread (Count)
system.cpu.statIssuedInstType_0::IntDiv            12      0.00%     22.88% # Number of instructions issued per FU type, per thread (Count)
system.cpu.statIssuedInstType_0::FloatAdd     70816644      9.00%     31.88% # Number of instructions issued per FU type, per thread (Count)
system.cpu.statIssuedInstType_0::FloatCmp      2133800      0.27%     32.15% # Number of instructions issued per FU type, per thread (Count)
system.cpu.statIssuedInstType_0::FloatCvt      1598357      0.20%     32.35% # Number of instructions issued per FU type, per thread (Count)
system.cpu.statIssuedInstType_0::FloatMult     70858094      9.00%     41.35% # Number of instructions issued per FU type, per thread (Count)
system.cpu.statIssuedInstType_0::FloatMultAcc     81243275     10.32%     51.67% # Number of instructions issued per FU type, per thread (Count)
system.cpu.statIssuedInstType_0::FloatDiv      1500520      0.19%     51.86% # Number of instructions issued per FU type, per thread (Count)
system.cpu.statIssuedInstType_0::FloatMisc      6404524      0.81%     52.67% # Number of instructions issued per FU type, per thread (Count)
system.cpu.statIssuedInstType_0::FloatSqrt            0      0.00%     52.67% # Number of instructions issued per FU type, per thread (Count)
system.cpu.statIssuedInstType_0::SimdAdd          393      0.00%     52.67% # Number of instructions issued per FU type, per thread (Count)
system.cpu.statIssuedInstType_0::SimdAddAcc            0      0.00%     52.67% # Number of instructions issued per FU type, per thread (Count)
system.cpu.statIssuedInstType_0::SimdAlu          603      0.00%     52.67% # Number of instructions issued per FU type, per thread (Count)
system.cpu.statIssuedInstType_0::SimdCmp          166      0.00%     52.67% # Number of instructions issued per FU type, per thread (Count)
system.cpu.statIssuedInstType_0::SimdCvt            2      0.00%     52.67% # Number of instructions issued per FU type, per thread (Count)
system.cpu.statIssuedInstType_0::SimdMisc       102159      0.01%     52.69% # Number of instructions issued per FU type, per thread (Count)
system.cpu.statIssuedInstType_0::SimdMult            0      0.00%     52.69% # Number of instructions issued per FU type, per thread (Count)
system.cpu.statIssuedInstType_0::SimdMultAcc            0      0.00%     52.69% # Number of instructions issued per FU type, per thread (Count)
system.cpu.statIssuedInstType_0::SimdShift          756      0.00%     52.69% # Number of instructions issued per FU type, per thread (Count)
system.cpu.statIssuedInstType_0::SimdShiftAcc            0      0.00%     52.69% # Number of instructions issued per FU type, per thread (Count)
system.cpu.statIssuedInstType_0::SimdDiv            0      0.00%     52.69% # Number of instructions issued per FU type, per thread (Count)
system.cpu.statIssuedInstType_0::SimdSqrt            0      0.00%     52.69% # Number of instructions issued per FU type, per thread (Count)
system.cpu.statIssuedInstType_0::SimdFloatAdd            0      0.00%     52.69% # Number of instructions issued per FU type, per thread (Count)
system.cpu.statIssuedInstType_0::SimdFloatAlu            0      0.00%     52.69% # Number of instructions issued per FU type, per thread (Count)
system.cpu.statIssuedInstType_0::SimdFloatCmp            0      0.00%     52.69% # Number of instructions issued per FU type, per thread (Count)
system.cpu.statIssuedInstType_0::SimdFloatCvt            0      0.00%     52.69% # Number of instructions issued per FU type, per thread (Count)
system.cpu.statIssuedInstType_0::SimdFloatDiv            0      0.00%     52.69% # Number of instructions issued per FU type, per thread (Count)
system.cpu.statIssuedInstType_0::SimdFloatMisc            0      0.00%     52.69% # Number of instructions issued per FU type, per thread (Count)
system.cpu.statIssuedInstType_0::SimdFloatMult            0      0.00%     52.69% # Number of instructions issued per FU type, per thread (Count)
system.cpu.statIssuedInstType_0::SimdFloatMultAcc            0      0.00%     52.69% # Number of instructions issued per FU type, per thread (Count)
system.cpu.statIssuedInstType_0::SimdFloatSqrt            0      0.00%     52.69% # Number of instructions issued per FU type, per thread (Count)
system.cpu.statIssuedInstType_0::SimdReduceAdd            0      0.00%     52.69% # Number of instructions issued per FU type, per thread (Count)
system.cpu.statIssuedInstType_0::SimdReduceAlu            0      0.00%     52.69% # Number of instructions issued per FU type, per thread (Count)
system.cpu.statIssuedInstType_0::SimdReduceCmp            0      0.00%     52.69% # Number of instructions issued per FU type, per thread (Count)
system.cpu.statIssuedInstType_0::SimdFloatReduceAdd            0      0.00%     52.69% # Number of instructions issued per FU type, per thread (Count)
system.cpu.statIssuedInstType_0::SimdFloatReduceCmp            0      0.00%     52.69% # Number of instructions issued per FU type, per thread (Count)
system.cpu.statIssuedInstType_0::SimdAes            0      0.00%     52.69% # Number of instructions issued per FU type, per thread (Count)
system.cpu.statIssuedInstType_0::SimdAesMix            0      0.00%     52.69% # Number of instructions issued per FU type, per thread (Count)
system.cpu.statIssuedInstType_0::SimdSha1Hash            0      0.00%     52.69% # Number of instructions issued per FU type, per thread (Count)
system.cpu.statIssuedInstType_0::SimdSha1Hash2            0      0.00%     52.69% # Number of instructions issued per FU type, per thread (Count)
system.cpu.statIssuedInstType_0::SimdSha256Hash            0      0.00%     52.69% # Number of instructions issued per FU type, per thread (Count)
system.cpu.statIssuedInstType_0::SimdSha256Hash2            0      0.00%     52.69% # Number of instructions issued per FU type, per thread (Count)
system.cpu.statIssuedInstType_0::SimdShaSigma2            0      0.00%     52.69% # Number of instructions issued per FU type, per thread (Count)
system.cpu.statIssuedInstType_0::SimdShaSigma3            0      0.00%     52.69% # Number of instructions issued per FU type, per thread (Count)
system.cpu.statIssuedInstType_0::SimdPredAlu            0      0.00%     52.69% # Number of instructions issued per FU type, per thread (Count)
system.cpu.statIssuedInstType_0::MemRead    240111899     30.50%     83.19% # Number of instructions issued per FU type, per thread (Count)
system.cpu.statIssuedInstType_0::MemWrite    132374011     16.81%    100.00% # Number of instructions issued per FU type, per thread (Count)
system.cpu.statIssuedInstType_0::FloatMemRead            0      0.00%    100.00% # Number of instructions issued per FU type, per thread (Count)
system.cpu.statIssuedInstType_0::FloatMemWrite            0      0.00%    100.00% # Number of instructions issued per FU type, per thread (Count)
system.cpu.statIssuedInstType_0::IprAccess            0      0.00%    100.00% # Number of instructions issued per FU type, per thread (Count)
system.cpu.statIssuedInstType_0::InstPrefetch            0      0.00%    100.00% # Number of instructions issued per FU type, per thread (Count)
system.cpu.statIssuedInstType_0::total      787274637                       # Number of instructions issued per FU type, per thread (Count)
system.cpu.issueRate                         3.313210                       # Inst issue rate ((Count/Cycle))
system.cpu.fuBusy                            87872028                       # FU busy when requested (Count)
system.cpu.fuBusyRate                        0.111615                       # FU busy rate (busy events/executed inst) ((Count/Count))
system.cpu.intInstQueueReads                611550068                       # Number of integer instruction queue reads (Count)
system.cpu.intInstQueueWrites               194523529                       # Number of integer instruction queue writes (Count)
system.cpu.intInstQueueWakeupAccesses       184225507                       # Number of integer instruction queue wakeup accesses (Count)
system.cpu.fpInstQueueReads                         0                       # Number of floating instruction queue reads (Count)
system.cpu.fpInstQueueWrites                        0                       # Number of floating instruction queue writes (Count)
system.cpu.fpInstQueueWakeupAccesses                0                       # Number of floating instruction queue wakeup accesses (Count)
system.cpu.vecInstQueueReads               1290794740                       # Number of vector instruction queue reads (Count)
system.cpu.vecInstQueueWrites               648624599                       # Number of vector instruction queue writes (Count)
system.cpu.vecInstQueueWakeupAccesses       596687321                       # Number of vector instruction queue wakeup accesses (Count)
system.cpu.intAluAccesses                   188721149                       # Number of integer alu accesses (Count)
system.cpu.fpAluAccesses                            0                       # Number of floating point alu accesses (Count)
system.cpu.vecAluAccesses                   686425431                       # Number of vector alu accesses (Count)
system.cpu.numInsts                         783321395                       # Number of executed instructions (Count)
system.cpu.numLoadInsts                     238086354                       # Number of load instructions executed (Count)
system.cpu.numSquashedInsts                   3953242                       # Number of squashed instructions skipped in execute (Count)
system.cpu.numSwp                                   0                       # Number of swp insts executed (Count)
system.cpu.numNop                                 329                       # Number of nop insts executed (Count)
system.cpu.numRefs                          370356475                       # Number of memory reference insts executed (Count)
system.cpu.numBranches                       37896238                       # Number of branches executed (Count)
system.cpu.numStoreInsts                    132270121                       # Number of stores executed (Count)
system.cpu.numRate                           3.296573                       # Inst execution rate ((Count/Cycle))
system.cpu.timesIdled                             775                       # Number of times that the entire CPU went into an idle state and unscheduled itself (Count)
system.cpu.idleCycles                           57155                       # Total number of cycles that the CPU has spent unscheduled due to idling (Cycle)
system.cpu.committedInsts                   701649707                       # Number of Instructions Simulated (Count)
system.cpu.committedOps                     769676021                       # Number of Ops (including micro ops) Simulated (Count)
system.cpu.cpi                               0.338655                       # CPI: Cycles Per Instruction ((Cycle/Count))
system.cpu.totalCpi                          0.338655                       # CPI: Total CPI of All Threads ((Cycle/Count))
system.cpu.ipc                               2.952862                       # IPC: Instructions Per Cycle ((Count/Cycle))
system.cpu.totalIpc                          2.952862                       # IPC: Total IPC of All Threads ((Count/Cycle))
system.cpu.intRegfileReads                  555706826                       # Number of integer regfile reads (Count)
system.cpu.intRegfileWrites                 119686923                       # Number of integer regfile writes (Count)
system.cpu.vecRegfileReads                 1165618795                       # number of vector regfile reads (Count)
system.cpu.ccRegfileReads                    99017515                       # number of cc regfile reads (Count)
system.cpu.ccRegfileWrites                  101635828                       # number of cc regfile writes (Count)
system.cpu.miscRegfileReads                1460324996                       # number of misc regfile reads (Count)
system.cpu.miscRegfileWrites                226761693                       # number of misc regfile writes (Count)
system.cpu.MemDepUnit__0<bad format>.insertedLoads    242823072                       # Number of loads inserted to the mem dependence unit. (Count)
system.cpu.MemDepUnit__0<bad format>.insertedStores    135263655                       # Number of stores inserted to the mem dependence unit. (Count)
system.cpu.MemDepUnit__0<bad format>.conflictingLoads     59009437                       # Number of conflicting loads. (Count)
system.cpu.MemDepUnit__0<bad format>.conflictingStores     69285647                       # Number of conflicting stores. (Count)
system.cpu.MemDepUnit__0<bad format>.baseUsingStoreSetCheck    295648652                       # Number of times base case uses storeset (Count)
system.cpu.MemDepUnit__0<bad format>.BypassStoreSetCheck     82437434                       # Number of time we bypass storeset stores due to alias analysis (Count)
system.cpu.MemDepUnit__0<bad format>.SSITCollisions    119310598                       # Number of times two different PCs hash to the same SSIT entry within a clear period. (Count)
system.cpu.MemDepUnit__0<bad format>.SSITOverwrites         4340                       # Number of times an existing SSIT entry is overwritten (Count)
system.cpu.MemDepUnit__0<bad format>.LFSTInvalidations     11056484                       # Number of times an issued store has to invalidate itself in LFST. (Count)
system.cpu.MemDepUnit__1<bad format>.insertedLoads            0                       # Number of loads inserted to the mem dependence unit. (Count)
system.cpu.MemDepUnit__1<bad format>.insertedStores            0                       # Number of stores inserted to the mem dependence unit. (Count)
system.cpu.MemDepUnit__1<bad format>.conflictingLoads            0                       # Number of conflicting loads. (Count)
system.cpu.MemDepUnit__1<bad format>.conflictingStores            0                       # Number of conflicting stores. (Count)
system.cpu.MemDepUnit__1<bad format>.baseUsingStoreSetCheck            0                       # Number of times base case uses storeset (Count)
system.cpu.MemDepUnit__1<bad format>.BypassStoreSetCheck            0                       # Number of time we bypass storeset stores due to alias analysis (Count)
system.cpu.MemDepUnit__1<bad format>.SSITCollisions            0                       # Number of times two different PCs hash to the same SSIT entry within a clear period. (Count)
system.cpu.MemDepUnit__1<bad format>.SSITOverwrites            0                       # Number of times an existing SSIT entry is overwritten (Count)
system.cpu.MemDepUnit__1<bad format>.LFSTInvalidations            0                       # Number of times an issued store has to invalidate itself in LFST. (Count)
system.cpu.MemDepUnit__2<bad format>.insertedLoads            0                       # Number of loads inserted to the mem dependence unit. (Count)
system.cpu.MemDepUnit__2<bad format>.insertedStores            0                       # Number of stores inserted to the mem dependence unit. (Count)
system.cpu.MemDepUnit__2<bad format>.conflictingLoads            0                       # Number of conflicting loads. (Count)
system.cpu.MemDepUnit__2<bad format>.conflictingStores            0                       # Number of conflicting stores. (Count)
system.cpu.MemDepUnit__2<bad format>.baseUsingStoreSetCheck            0                       # Number of times base case uses storeset (Count)
system.cpu.MemDepUnit__2<bad format>.BypassStoreSetCheck            0                       # Number of time we bypass storeset stores due to alias analysis (Count)
system.cpu.MemDepUnit__2<bad format>.SSITCollisions            0                       # Number of times two different PCs hash to the same SSIT entry within a clear period. (Count)
system.cpu.MemDepUnit__2<bad format>.SSITOverwrites            0                       # Number of times an existing SSIT entry is overwritten (Count)
system.cpu.MemDepUnit__2<bad format>.LFSTInvalidations            0                       # Number of times an issued store has to invalidate itself in LFST. (Count)
system.cpu.MemDepUnit__3<bad format>.insertedLoads            0                       # Number of loads inserted to the mem dependence unit. (Count)
system.cpu.MemDepUnit__3<bad format>.insertedStores            0                       # Number of stores inserted to the mem dependence unit. (Count)
system.cpu.MemDepUnit__3<bad format>.conflictingLoads            0                       # Number of conflicting loads. (Count)
system.cpu.MemDepUnit__3<bad format>.conflictingStores            0                       # Number of conflicting stores. (Count)
system.cpu.MemDepUnit__3<bad format>.baseUsingStoreSetCheck            0                       # Number of times base case uses storeset (Count)
system.cpu.MemDepUnit__3<bad format>.BypassStoreSetCheck            0                       # Number of time we bypass storeset stores due to alias analysis (Count)
system.cpu.MemDepUnit__3<bad format>.SSITCollisions            0                       # Number of times two different PCs hash to the same SSIT entry within a clear period. (Count)
system.cpu.MemDepUnit__3<bad format>.SSITOverwrites            0                       # Number of times an existing SSIT entry is overwritten (Count)
system.cpu.MemDepUnit__3<bad format>.LFSTInvalidations            0                       # Number of times an issued store has to invalidate itself in LFST. (Count)
system.cpu.StoreSet__0.insertedLoads        242823072                       # Number of loads inserted to the mem dependence unit. (Count)
system.cpu.StoreSet__0.insertedStores       135263655                       # Number of stores inserted to the mem dependence unit. (Count)
system.cpu.StoreSet__0.conflictingLoads      59009437                       # Number of conflicting loads. (Count)
system.cpu.StoreSet__0.conflictingStores     69285647                       # Number of conflicting stores. (Count)
system.cpu.StoreSet__0.baseUsingStoreSetCheck    295648652                       # Number of times base case uses storeset (Count)
system.cpu.StoreSet__0.BypassStoreSetCheck     82437434                       # Number of time we bypass storeset stores due to alias analysis (Count)
system.cpu.StoreSet__0.SSITCollisions       119310598                       # Number of times two different PCs hash to the same SSIT entry within a clear period. (Count)
system.cpu.StoreSet__0.SSITOverwrites            4340                       # Number of times an existing SSIT entry is overwritten (Count)
system.cpu.StoreSet__0.LFSTInvalidations     11056484                       # Number of times an issued store has to invalidate itself in LFST. (Count)
system.cpu.StoreSet__1.insertedLoads                0                       # Number of loads inserted to the mem dependence unit. (Count)
system.cpu.StoreSet__1.insertedStores               0                       # Number of stores inserted to the mem dependence unit. (Count)
system.cpu.StoreSet__1.conflictingLoads             0                       # Number of conflicting loads. (Count)
system.cpu.StoreSet__1.conflictingStores            0                       # Number of conflicting stores. (Count)
system.cpu.StoreSet__1.baseUsingStoreSetCheck            0                       # Number of times base case uses storeset (Count)
system.cpu.StoreSet__1.BypassStoreSetCheck            0                       # Number of time we bypass storeset stores due to alias analysis (Count)
system.cpu.StoreSet__1.SSITCollisions               0                       # Number of times two different PCs hash to the same SSIT entry within a clear period. (Count)
system.cpu.StoreSet__1.SSITOverwrites               0                       # Number of times an existing SSIT entry is overwritten (Count)
system.cpu.StoreSet__1.LFSTInvalidations            0                       # Number of times an issued store has to invalidate itself in LFST. (Count)
system.cpu.StoreSet__2.insertedLoads                0                       # Number of loads inserted to the mem dependence unit. (Count)
system.cpu.StoreSet__2.insertedStores               0                       # Number of stores inserted to the mem dependence unit. (Count)
system.cpu.StoreSet__2.conflictingLoads             0                       # Number of conflicting loads. (Count)
system.cpu.StoreSet__2.conflictingStores            0                       # Number of conflicting stores. (Count)
system.cpu.StoreSet__2.baseUsingStoreSetCheck            0                       # Number of times base case uses storeset (Count)
system.cpu.StoreSet__2.BypassStoreSetCheck            0                       # Number of time we bypass storeset stores due to alias analysis (Count)
system.cpu.StoreSet__2.SSITCollisions               0                       # Number of times two different PCs hash to the same SSIT entry within a clear period. (Count)
system.cpu.StoreSet__2.SSITOverwrites               0                       # Number of times an existing SSIT entry is overwritten (Count)
system.cpu.StoreSet__2.LFSTInvalidations            0                       # Number of times an issued store has to invalidate itself in LFST. (Count)
system.cpu.StoreSet__3.insertedLoads                0                       # Number of loads inserted to the mem dependence unit. (Count)
system.cpu.StoreSet__3.insertedStores               0                       # Number of stores inserted to the mem dependence unit. (Count)
system.cpu.StoreSet__3.conflictingLoads             0                       # Number of conflicting loads. (Count)
system.cpu.StoreSet__3.conflictingStores            0                       # Number of conflicting stores. (Count)
system.cpu.StoreSet__3.baseUsingStoreSetCheck            0                       # Number of times base case uses storeset (Count)
system.cpu.StoreSet__3.BypassStoreSetCheck            0                       # Number of time we bypass storeset stores due to alias analysis (Count)
system.cpu.StoreSet__3.SSITCollisions               0                       # Number of times two different PCs hash to the same SSIT entry within a clear period. (Count)
system.cpu.StoreSet__3.SSITOverwrites               0                       # Number of times an existing SSIT entry is overwritten (Count)
system.cpu.StoreSet__3.LFSTInvalidations            0                       # Number of times an issued store has to invalidate itself in LFST. (Count)
system.cpu.branchPred.lookups                42571453                       # Number of BP lookups (Count)
system.cpu.branchPred.condPredicted          38872197                       # Number of conditional branches predicted (Count)
system.cpu.branchPred.condIncorrect           1066502                       # Number of conditional branches incorrect (Count)
system.cpu.branchPred.BTBLookups             35648178                       # Number of BTB lookups (Count)
system.cpu.branchPred.BTBHits                35645376                       # Number of BTB hits (Count)
system.cpu.branchPred.BTBHitRatio            0.999921                       # BTB Hit Ratio (Ratio)
system.cpu.branchPred.RASUsed                 1520976                       # Number of times the RAS was used to get a target. (Count)
system.cpu.branchPred.RASIncorrect                  4                       # Number of incorrect RAS predictions. (Count)
system.cpu.branchPred.indirectLookups            1767                       # Number of indirect predictor lookups. (Count)
system.cpu.branchPred.indirectHits                960                       # Number of indirect target hits. (Count)
system.cpu.branchPred.indirectMisses              807                       # Number of indirect misses. (Count)
system.cpu.branchPred.indirectMispredicted          136                       # Number of mispredicted indirect branches. (Count)
system.cpu.commit.commitSquashedInsts        36686128                       # The number of squashed insts skipped by commit (Count)
system.cpu.commit.commitNonSpecStalls              85                       # The number of times commit has been forced to stall to communicate backwards (Count)
system.cpu.commit.branchMispredicts           1065955                       # The number of times a branch was mispredicted (Count)
system.cpu.commit.numCommittedDist::samples    235022545                       # Number of insts commited each cycle (Count)
system.cpu.commit.numCommittedDist::mean     3.274904                       # Number of insts commited each cycle (Count)
system.cpu.commit.numCommittedDist::stdev     5.703894                       # Number of insts commited each cycle (Count)
system.cpu.commit.numCommittedDist::underflows            0      0.00%      0.00% # Number of insts commited each cycle (Count)
system.cpu.commit.numCommittedDist::0       105479167     44.88%     44.88% # Number of insts commited each cycle (Count)
system.cpu.commit.numCommittedDist::1        30318737     12.90%     57.78% # Number of insts commited each cycle (Count)
system.cpu.commit.numCommittedDist::2        25660774     10.92%     68.70% # Number of insts commited each cycle (Count)
system.cpu.commit.numCommittedDist::3         5461266      2.32%     71.02% # Number of insts commited each cycle (Count)
system.cpu.commit.numCommittedDist::4         3531097      1.50%     72.53% # Number of insts commited each cycle (Count)
system.cpu.commit.numCommittedDist::5         7631585      3.25%     75.77% # Number of insts commited each cycle (Count)
system.cpu.commit.numCommittedDist::6        19600601      8.34%     84.11% # Number of insts commited each cycle (Count)
system.cpu.commit.numCommittedDist::7        19659552      8.36%     92.48% # Number of insts commited each cycle (Count)
system.cpu.commit.numCommittedDist::8         1338346      0.57%     93.05% # Number of insts commited each cycle (Count)
system.cpu.commit.numCommittedDist::9          711855      0.30%     93.35% # Number of insts commited each cycle (Count)
system.cpu.commit.numCommittedDist::10         395731      0.17%     93.52% # Number of insts commited each cycle (Count)
system.cpu.commit.numCommittedDist::11         210133      0.09%     93.61% # Number of insts commited each cycle (Count)
system.cpu.commit.numCommittedDist::12           6043      0.00%     93.61% # Number of insts commited each cycle (Count)
system.cpu.commit.numCommittedDist::13         787945      0.34%     93.95% # Number of insts commited each cycle (Count)
system.cpu.commit.numCommittedDist::14          34658      0.01%     93.96% # Number of insts commited each cycle (Count)
system.cpu.commit.numCommittedDist::15         267571      0.11%     94.07% # Number of insts commited each cycle (Count)
system.cpu.commit.numCommittedDist::16          58977      0.03%     94.10% # Number of insts commited each cycle (Count)
system.cpu.commit.numCommittedDist::17         184759      0.08%     94.18% # Number of insts commited each cycle (Count)
system.cpu.commit.numCommittedDist::18          75551      0.03%     94.21% # Number of insts commited each cycle (Count)
system.cpu.commit.numCommittedDist::19          92491      0.04%     94.25% # Number of insts commited each cycle (Count)
system.cpu.commit.numCommittedDist::20         645485      0.27%     94.52% # Number of insts commited each cycle (Count)
system.cpu.commit.numCommittedDist::21         649616      0.28%     94.80% # Number of insts commited each cycle (Count)
system.cpu.commit.numCommittedDist::22         314296      0.13%     94.93% # Number of insts commited each cycle (Count)
system.cpu.commit.numCommittedDist::23         466743      0.20%     95.13% # Number of insts commited each cycle (Count)
system.cpu.commit.numCommittedDist::24       11439566      4.87%    100.00% # Number of insts commited each cycle (Count)
system.cpu.commit.numCommittedDist::overflows            0      0.00%    100.00% # Number of insts commited each cycle (Count)
system.cpu.commit.numCommittedDist::min_value            0                       # Number of insts commited each cycle (Count)
system.cpu.commit.numCommittedDist::max_value           24                       # Number of insts commited each cycle (Count)
system.cpu.commit.numCommittedDist::total    235022545                       # Number of insts commited each cycle (Count)
system.cpu.commit.instsCommitted            701649969                       # Number of instructions committed (Count)
system.cpu.commit.opsCommitted              769676283                       # Number of ops (including micro ops) committed (Count)
system.cpu.commit.memRefs                   362962734                       # Number of memory references committed (Count)
system.cpu.commit.loads                     231203595                       # Number of loads committed (Count)
system.cpu.commit.amos                             28                       # Number of atomic instructions committed (Count)
system.cpu.commit.membars                          34                       # Number of memory barriers committed (Count)
system.cpu.commit.branches                   36926493                       # Number of branches committed (Count)
system.cpu.commit.vectorInstructions        588653033                       # Number of committed Vector instructions. (Count)
system.cpu.commit.floating                          0                       # Number of committed floating point instructions. (Count)
system.cpu.commit.integer                   510943479                       # Number of committed integer instructions. (Count)
system.cpu.commit.functionCalls               1493813                       # Number of function calls committed. (Count)
system.cpu.commit.committedInstType_0::No_OpClass           79      0.00%      0.00% # Class of committed instruction (Count)
system.cpu.commit.committedInstType_0::IntAlu    175840692     22.85%     22.85% # Class of committed instruction (Count)
system.cpu.commit.committedInstType_0::IntMult        93721      0.01%     22.86% # Class of committed instruction (Count)
system.cpu.commit.committedInstType_0::IntDiv           10      0.00%     22.86% # Class of committed instruction (Count)
system.cpu.commit.committedInstType_0::FloatAdd     69499564      9.03%     31.89% # Class of committed instruction (Count)
system.cpu.commit.committedInstType_0::FloatCmp      1492614      0.19%     32.08% # Class of committed instruction (Count)
system.cpu.commit.committedInstType_0::FloatCvt      1589702      0.21%     32.29% # Class of committed instruction (Count)
system.cpu.commit.committedInstType_0::FloatMult     70245864      9.13%     41.42% # Class of committed instruction (Count)
system.cpu.commit.committedInstType_0::FloatMultAcc     80600832     10.47%     51.89% # Class of committed instruction (Count)
system.cpu.commit.committedInstType_0::FloatDiv      1496199      0.19%     52.08% # Class of committed instruction (Count)
system.cpu.commit.committedInstType_0::FloatMisc      5751656      0.75%     52.83% # Class of committed instruction (Count)
system.cpu.commit.committedInstType_0::FloatSqrt            0      0.00%     52.83% # Class of committed instruction (Count)
system.cpu.commit.committedInstType_0::SimdAdd          370      0.00%     52.83% # Class of committed instruction (Count)
system.cpu.commit.committedInstType_0::SimdAddAcc            0      0.00%     52.83% # Class of committed instruction (Count)
system.cpu.commit.committedInstType_0::SimdAlu          594      0.00%     52.83% # Class of committed instruction (Count)
system.cpu.commit.committedInstType_0::SimdCmp          149      0.00%     52.83% # Class of committed instruction (Count)
system.cpu.commit.committedInstType_0::SimdCvt            2      0.00%     52.83% # Class of committed instruction (Count)
system.cpu.commit.committedInstType_0::SimdMisc       100745      0.01%     52.84% # Class of committed instruction (Count)
system.cpu.commit.committedInstType_0::SimdMult            0      0.00%     52.84% # Class of committed instruction (Count)
system.cpu.commit.committedInstType_0::SimdMultAcc            0      0.00%     52.84% # Class of committed instruction (Count)
system.cpu.commit.committedInstType_0::SimdShift          756      0.00%     52.84% # Class of committed instruction (Count)
system.cpu.commit.committedInstType_0::SimdShiftAcc            0      0.00%     52.84% # Class of committed instruction (Count)
system.cpu.commit.committedInstType_0::SimdDiv            0      0.00%     52.84% # Class of committed instruction (Count)
system.cpu.commit.committedInstType_0::SimdSqrt            0      0.00%     52.84% # Class of committed instruction (Count)
system.cpu.commit.committedInstType_0::SimdFloatAdd            0      0.00%     52.84% # Class of committed instruction (Count)
system.cpu.commit.committedInstType_0::SimdFloatAlu            0      0.00%     52.84% # Class of committed instruction (Count)
system.cpu.commit.committedInstType_0::SimdFloatCmp            0      0.00%     52.84% # Class of committed instruction (Count)
system.cpu.commit.committedInstType_0::SimdFloatCvt            0      0.00%     52.84% # Class of committed instruction (Count)
system.cpu.commit.committedInstType_0::SimdFloatDiv            0      0.00%     52.84% # Class of committed instruction (Count)
system.cpu.commit.committedInstType_0::SimdFloatMisc            0      0.00%     52.84% # Class of committed instruction (Count)
system.cpu.commit.committedInstType_0::SimdFloatMult            0      0.00%     52.84% # Class of committed instruction (Count)
system.cpu.commit.committedInstType_0::SimdFloatMultAcc            0      0.00%     52.84% # Class of committed instruction (Count)
system.cpu.commit.committedInstType_0::SimdFloatSqrt            0      0.00%     52.84% # Class of committed instruction (Count)
system.cpu.commit.committedInstType_0::SimdReduceAdd            0      0.00%     52.84% # Class of committed instruction (Count)
system.cpu.commit.committedInstType_0::SimdReduceAlu            0      0.00%     52.84% # Class of committed instruction (Count)
system.cpu.commit.committedInstType_0::SimdReduceCmp            0      0.00%     52.84% # Class of committed instruction (Count)
system.cpu.commit.committedInstType_0::SimdFloatReduceAdd            0      0.00%     52.84% # Class of committed instruction (Count)
system.cpu.commit.committedInstType_0::SimdFloatReduceCmp            0      0.00%     52.84% # Class of committed instruction (Count)
system.cpu.commit.committedInstType_0::SimdAes            0      0.00%     52.84% # Class of committed instruction (Count)
system.cpu.commit.committedInstType_0::SimdAesMix            0      0.00%     52.84% # Class of committed instruction (Count)
system.cpu.commit.committedInstType_0::SimdSha1Hash            0      0.00%     52.84% # Class of committed instruction (Count)
system.cpu.commit.committedInstType_0::SimdSha1Hash2            0      0.00%     52.84% # Class of committed instruction (Count)
system.cpu.commit.committedInstType_0::SimdSha256Hash            0      0.00%     52.84% # Class of committed instruction (Count)
system.cpu.commit.committedInstType_0::SimdSha256Hash2            0      0.00%     52.84% # Class of committed instruction (Count)
system.cpu.commit.committedInstType_0::SimdShaSigma2            0      0.00%     52.84% # Class of committed instruction (Count)
system.cpu.commit.committedInstType_0::SimdShaSigma3            0      0.00%     52.84% # Class of committed instruction (Count)
system.cpu.commit.committedInstType_0::SimdPredAlu            0      0.00%     52.84% # Class of committed instruction (Count)
system.cpu.commit.committedInstType_0::MemRead    231203595     30.04%     82.88% # Class of committed instruction (Count)
system.cpu.commit.committedInstType_0::MemWrite    131759139     17.12%    100.00% # Class of committed instruction (Count)
system.cpu.commit.committedInstType_0::FloatMemRead            0      0.00%    100.00% # Class of committed instruction (Count)
system.cpu.commit.committedInstType_0::FloatMemWrite            0      0.00%    100.00% # Class of committed instruction (Count)
system.cpu.commit.committedInstType_0::IprAccess            0      0.00%    100.00% # Class of committed instruction (Count)
system.cpu.commit.committedInstType_0::InstPrefetch            0      0.00%    100.00% # Class of committed instruction (Count)
system.cpu.commit.committedInstType_0::total    769676283                       # Class of committed instruction (Count)
system.cpu.commit.commitEligibleSamples      11439566                       # number cycles where commit BW limit reached (Cycle)
system.cpu.dcache.demandHits::cpu.data      369193627                       # number of demand (read+write) hits (Count)
system.cpu.dcache.demandHits::total         369193627                       # number of demand (read+write) hits (Count)
system.cpu.dcache.overallHits::cpu.data     369193627                       # number of overall hits (Count)
system.cpu.dcache.overallHits::total        369193627                       # number of overall hits (Count)
system.cpu.dcache.demandMisses::cpu.data         7454                       # number of demand (read+write) misses (Count)
system.cpu.dcache.demandMisses::total            7454                       # number of demand (read+write) misses (Count)
system.cpu.dcache.overallMisses::cpu.data         7454                       # number of overall misses (Count)
system.cpu.dcache.overallMisses::total           7454                       # number of overall misses (Count)
system.cpu.dcache.demandMissLatency::cpu.data    364669697                       # number of demand (read+write) miss ticks (Tick)
system.cpu.dcache.demandMissLatency::total    364669697                       # number of demand (read+write) miss ticks (Tick)
system.cpu.dcache.overallMissLatency::cpu.data    364669697                       # number of overall miss ticks (Tick)
system.cpu.dcache.overallMissLatency::total    364669697                       # number of overall miss ticks (Tick)
system.cpu.dcache.demandAccesses::cpu.data    369201081                       # number of demand (read+write) accesses (Count)
system.cpu.dcache.demandAccesses::total     369201081                       # number of demand (read+write) accesses (Count)
system.cpu.dcache.overallAccesses::cpu.data    369201081                       # number of overall (read+write) accesses (Count)
system.cpu.dcache.overallAccesses::total    369201081                       # number of overall (read+write) accesses (Count)
system.cpu.dcache.demandMissRate::cpu.data     0.000020                       # miss rate for demand accesses (Ratio)
system.cpu.dcache.demandMissRate::total      0.000020                       # miss rate for demand accesses (Ratio)
system.cpu.dcache.overallMissRate::cpu.data     0.000020                       # miss rate for overall accesses (Ratio)
system.cpu.dcache.overallMissRate::total     0.000020                       # miss rate for overall accesses (Ratio)
system.cpu.dcache.demandAvgMissLatency::cpu.data 48922.685404                       # average overall miss latency in ticks ((Tick/Count))
system.cpu.dcache.demandAvgMissLatency::total 48922.685404                       # average overall miss latency in ticks ((Tick/Count))
system.cpu.dcache.overallAvgMissLatency::cpu.data 48922.685404                       # average overall miss latency ((Tick/Count))
system.cpu.dcache.overallAvgMissLatency::total 48922.685404                       # average overall miss latency ((Tick/Count))
system.cpu.dcache.blockedCycles::no_mshrs        24499                       # number of cycles access was blocked (Cycle)
system.cpu.dcache.blockedCycles::no_targets          198                       # number of cycles access was blocked (Cycle)
system.cpu.dcache.blockedCauses::no_mshrs         1050                       # number of times access was blocked (Count)
system.cpu.dcache.blockedCauses::no_targets            3                       # number of times access was blocked (Count)
system.cpu.dcache.avgBlocked::no_mshrs      23.332381                       # average number of cycles each access was blocked ((Cycle/Count))
system.cpu.dcache.avgBlocked::no_targets           66                       # average number of cycles each access was blocked ((Cycle/Count))
system.cpu.dcache.writebacks::writebacks          370                       # number of writebacks (Count)
system.cpu.dcache.writebacks::total               370                       # number of writebacks (Count)
system.cpu.dcache.demandMshrHits::cpu.data         5849                       # number of demand (read+write) MSHR hits (Count)
system.cpu.dcache.demandMshrHits::total          5849                       # number of demand (read+write) MSHR hits (Count)
system.cpu.dcache.overallMshrHits::cpu.data         5849                       # number of overall MSHR hits (Count)
system.cpu.dcache.overallMshrHits::total         5849                       # number of overall MSHR hits (Count)
system.cpu.dcache.demandMshrMisses::cpu.data         1605                       # number of demand (read+write) MSHR misses (Count)
system.cpu.dcache.demandMshrMisses::total         1605                       # number of demand (read+write) MSHR misses (Count)
system.cpu.dcache.overallMshrMisses::cpu.data         1605                       # number of overall MSHR misses (Count)
system.cpu.dcache.overallMshrMisses::total         1605                       # number of overall MSHR misses (Count)
system.cpu.dcache.demandMshrMissLatency::cpu.data     84236736                       # number of demand (read+write) MSHR miss ticks (Tick)
system.cpu.dcache.demandMshrMissLatency::total     84236736                       # number of demand (read+write) MSHR miss ticks (Tick)
system.cpu.dcache.overallMshrMissLatency::cpu.data     84236736                       # number of overall MSHR miss ticks (Tick)
system.cpu.dcache.overallMshrMissLatency::total     84236736                       # number of overall MSHR miss ticks (Tick)
system.cpu.dcache.demandMshrMissRate::cpu.data     0.000004                       # mshr miss ratio for demand accesses (Ratio)
system.cpu.dcache.demandMshrMissRate::total     0.000004                       # mshr miss ratio for demand accesses (Ratio)
system.cpu.dcache.overallMshrMissRate::cpu.data     0.000004                       # mshr miss ratio for overall accesses (Ratio)
system.cpu.dcache.overallMshrMissRate::total     0.000004                       # mshr miss ratio for overall accesses (Ratio)
system.cpu.dcache.demandAvgMshrMissLatency::cpu.data 52483.947664                       # average overall mshr miss latency ((Tick/Count))
system.cpu.dcache.demandAvgMshrMissLatency::total 52483.947664                       # average overall mshr miss latency ((Tick/Count))
system.cpu.dcache.overallAvgMshrMissLatency::cpu.data 52483.947664                       # average overall mshr miss latency ((Tick/Count))
system.cpu.dcache.overallAvgMshrMissLatency::total 52483.947664                       # average overall mshr miss latency ((Tick/Count))
system.cpu.dcache.replacements                    593                       # number of replacements (Count)
system.cpu.dcache.LoadLockedReq.hits::cpu.data           11                       # number of LoadLockedReq hits (Count)
system.cpu.dcache.LoadLockedReq.hits::total           11                       # number of LoadLockedReq hits (Count)
system.cpu.dcache.LoadLockedReq.misses::cpu.data            1                       # number of LoadLockedReq misses (Count)
system.cpu.dcache.LoadLockedReq.misses::total            1                       # number of LoadLockedReq misses (Count)
system.cpu.dcache.LoadLockedReq.missLatency::cpu.data        79500                       # number of LoadLockedReq miss ticks (Tick)
system.cpu.dcache.LoadLockedReq.missLatency::total        79500                       # number of LoadLockedReq miss ticks (Tick)
system.cpu.dcache.LoadLockedReq.accesses::cpu.data           12                       # number of LoadLockedReq accesses(hits+misses) (Count)
system.cpu.dcache.LoadLockedReq.accesses::total           12                       # number of LoadLockedReq accesses(hits+misses) (Count)
system.cpu.dcache.LoadLockedReq.missRate::cpu.data     0.083333                       # miss rate for LoadLockedReq accesses (Ratio)
system.cpu.dcache.LoadLockedReq.missRate::total     0.083333                       # miss rate for LoadLockedReq accesses (Ratio)
system.cpu.dcache.LoadLockedReq.avgMissLatency::cpu.data        79500                       # average LoadLockedReq miss latency ((Tick/Count))
system.cpu.dcache.LoadLockedReq.avgMissLatency::total        79500                       # average LoadLockedReq miss latency ((Tick/Count))
system.cpu.dcache.LoadLockedReq.mshrMisses::cpu.data            1                       # number of LoadLockedReq MSHR misses (Count)
system.cpu.dcache.LoadLockedReq.mshrMisses::total            1                       # number of LoadLockedReq MSHR misses (Count)
system.cpu.dcache.LoadLockedReq.mshrMissLatency::cpu.data        78500                       # number of LoadLockedReq MSHR miss ticks (Tick)
system.cpu.dcache.LoadLockedReq.mshrMissLatency::total        78500                       # number of LoadLockedReq MSHR miss ticks (Tick)
system.cpu.dcache.LoadLockedReq.mshrMissRate::cpu.data     0.083333                       # mshr miss rate for LoadLockedReq accesses (Ratio)
system.cpu.dcache.LoadLockedReq.mshrMissRate::total     0.083333                       # mshr miss rate for LoadLockedReq accesses (Ratio)
system.cpu.dcache.LoadLockedReq.avgMshrMissLatency::cpu.data        78500                       # average LoadLockedReq mshr miss latency ((Tick/Count))
system.cpu.dcache.LoadLockedReq.avgMshrMissLatency::total        78500                       # average LoadLockedReq mshr miss latency ((Tick/Count))
system.cpu.dcache.ReadReq.hits::cpu.data    237440624                       # number of ReadReq hits (Count)
system.cpu.dcache.ReadReq.hits::total       237440624                       # number of ReadReq hits (Count)
system.cpu.dcache.ReadReq.misses::cpu.data         1280                       # number of ReadReq misses (Count)
system.cpu.dcache.ReadReq.misses::total          1280                       # number of ReadReq misses (Count)
system.cpu.dcache.ReadReq.missLatency::cpu.data     70045500                       # number of ReadReq miss ticks (Tick)
system.cpu.dcache.ReadReq.missLatency::total     70045500                       # number of ReadReq miss ticks (Tick)
system.cpu.dcache.ReadReq.accesses::cpu.data    237441904                       # number of ReadReq accesses(hits+misses) (Count)
system.cpu.dcache.ReadReq.accesses::total    237441904                       # number of ReadReq accesses(hits+misses) (Count)
system.cpu.dcache.ReadReq.missRate::cpu.data     0.000005                       # miss rate for ReadReq accesses (Ratio)
system.cpu.dcache.ReadReq.missRate::total     0.000005                       # miss rate for ReadReq accesses (Ratio)
system.cpu.dcache.ReadReq.avgMissLatency::cpu.data 54723.046875                       # average ReadReq miss latency ((Tick/Count))
system.cpu.dcache.ReadReq.avgMissLatency::total 54723.046875                       # average ReadReq miss latency ((Tick/Count))
system.cpu.dcache.ReadReq.mshrHits::cpu.data          813                       # number of ReadReq MSHR hits (Count)
system.cpu.dcache.ReadReq.mshrHits::total          813                       # number of ReadReq MSHR hits (Count)
system.cpu.dcache.ReadReq.mshrMisses::cpu.data          467                       # number of ReadReq MSHR misses (Count)
system.cpu.dcache.ReadReq.mshrMisses::total          467                       # number of ReadReq MSHR misses (Count)
system.cpu.dcache.ReadReq.mshrMissLatency::cpu.data     30793500                       # number of ReadReq MSHR miss ticks (Tick)
system.cpu.dcache.ReadReq.mshrMissLatency::total     30793500                       # number of ReadReq MSHR miss ticks (Tick)
system.cpu.dcache.ReadReq.mshrMissRate::cpu.data     0.000002                       # mshr miss rate for ReadReq accesses (Ratio)
system.cpu.dcache.ReadReq.mshrMissRate::total     0.000002                       # mshr miss rate for ReadReq accesses (Ratio)
system.cpu.dcache.ReadReq.avgMshrMissLatency::cpu.data 65938.972163                       # average ReadReq mshr miss latency ((Tick/Count))
system.cpu.dcache.ReadReq.avgMshrMissLatency::total 65938.972163                       # average ReadReq mshr miss latency ((Tick/Count))
system.cpu.dcache.StoreCondReq.hits::cpu.data            4                       # number of StoreCondReq hits (Count)
system.cpu.dcache.StoreCondReq.hits::total            4                       # number of StoreCondReq hits (Count)
system.cpu.dcache.StoreCondReq.accesses::cpu.data            4                       # number of StoreCondReq accesses(hits+misses) (Count)
system.cpu.dcache.StoreCondReq.accesses::total            4                       # number of StoreCondReq accesses(hits+misses) (Count)
system.cpu.dcache.SwapReq.hits::cpu.data           26                       # number of SwapReq hits (Count)
system.cpu.dcache.SwapReq.hits::total              26                       # number of SwapReq hits (Count)
system.cpu.dcache.SwapReq.misses::cpu.data            2                       # number of SwapReq misses (Count)
system.cpu.dcache.SwapReq.misses::total             2                       # number of SwapReq misses (Count)
system.cpu.dcache.SwapReq.missLatency::cpu.data       130000                       # number of SwapReq miss ticks (Tick)
system.cpu.dcache.SwapReq.missLatency::total       130000                       # number of SwapReq miss ticks (Tick)
system.cpu.dcache.SwapReq.accesses::cpu.data           28                       # number of SwapReq accesses(hits+misses) (Count)
system.cpu.dcache.SwapReq.accesses::total           28                       # number of SwapReq accesses(hits+misses) (Count)
system.cpu.dcache.SwapReq.missRate::cpu.data     0.071429                       # miss rate for SwapReq accesses (Ratio)
system.cpu.dcache.SwapReq.missRate::total     0.071429                       # miss rate for SwapReq accesses (Ratio)
system.cpu.dcache.SwapReq.avgMissLatency::cpu.data        65000                       # average SwapReq miss latency ((Tick/Count))
system.cpu.dcache.SwapReq.avgMissLatency::total        65000                       # average SwapReq miss latency ((Tick/Count))
system.cpu.dcache.SwapReq.mshrMisses::cpu.data            2                       # number of SwapReq MSHR misses (Count)
system.cpu.dcache.SwapReq.mshrMisses::total            2                       # number of SwapReq MSHR misses (Count)
system.cpu.dcache.SwapReq.mshrMissLatency::cpu.data       128000                       # number of SwapReq MSHR miss ticks (Tick)
system.cpu.dcache.SwapReq.mshrMissLatency::total       128000                       # number of SwapReq MSHR miss ticks (Tick)
system.cpu.dcache.SwapReq.mshrMissRate::cpu.data     0.071429                       # mshr miss rate for SwapReq accesses (Ratio)
system.cpu.dcache.SwapReq.mshrMissRate::total     0.071429                       # mshr miss rate for SwapReq accesses (Ratio)
system.cpu.dcache.SwapReq.avgMshrMissLatency::cpu.data        64000                       # average SwapReq mshr miss latency ((Tick/Count))
system.cpu.dcache.SwapReq.avgMshrMissLatency::total        64000                       # average SwapReq mshr miss latency ((Tick/Count))
system.cpu.dcache.WriteLineReq.hits::cpu.data          115                       # number of WriteLineReq hits (Count)
system.cpu.dcache.WriteLineReq.hits::total          115                       # number of WriteLineReq hits (Count)
system.cpu.dcache.WriteLineReq.misses::cpu.data          318                       # number of WriteLineReq misses (Count)
system.cpu.dcache.WriteLineReq.misses::total          318                       # number of WriteLineReq misses (Count)
system.cpu.dcache.WriteLineReq.missLatency::cpu.data      3679255                       # number of WriteLineReq miss ticks (Tick)
system.cpu.dcache.WriteLineReq.missLatency::total      3679255                       # number of WriteLineReq miss ticks (Tick)
system.cpu.dcache.WriteLineReq.accesses::cpu.data          433                       # number of WriteLineReq accesses(hits+misses) (Count)
system.cpu.dcache.WriteLineReq.accesses::total          433                       # number of WriteLineReq accesses(hits+misses) (Count)
system.cpu.dcache.WriteLineReq.missRate::cpu.data     0.734411                       # miss rate for WriteLineReq accesses (Ratio)
system.cpu.dcache.WriteLineReq.missRate::total     0.734411                       # miss rate for WriteLineReq accesses (Ratio)
system.cpu.dcache.WriteLineReq.avgMissLatency::cpu.data 11569.984277                       # average WriteLineReq miss latency ((Tick/Count))
system.cpu.dcache.WriteLineReq.avgMissLatency::total 11569.984277                       # average WriteLineReq miss latency ((Tick/Count))
system.cpu.dcache.WriteLineReq.mshrMisses::cpu.data          318                       # number of WriteLineReq MSHR misses (Count)
system.cpu.dcache.WriteLineReq.mshrMisses::total          318                       # number of WriteLineReq MSHR misses (Count)
system.cpu.dcache.WriteLineReq.mshrMissLatency::cpu.data      3361255                       # number of WriteLineReq MSHR miss ticks (Tick)
system.cpu.dcache.WriteLineReq.mshrMissLatency::total      3361255                       # number of WriteLineReq MSHR miss ticks (Tick)
system.cpu.dcache.WriteLineReq.mshrMissRate::cpu.data     0.734411                       # mshr miss rate for WriteLineReq accesses (Ratio)
system.cpu.dcache.WriteLineReq.mshrMissRate::total     0.734411                       # mshr miss rate for WriteLineReq accesses (Ratio)
system.cpu.dcache.WriteLineReq.avgMshrMissLatency::cpu.data 10569.984277                       # average WriteLineReq mshr miss latency ((Tick/Count))
system.cpu.dcache.WriteLineReq.avgMshrMissLatency::total 10569.984277                       # average WriteLineReq mshr miss latency ((Tick/Count))
system.cpu.dcache.WriteReq.hits::cpu.data    131752888                       # number of WriteReq hits (Count)
system.cpu.dcache.WriteReq.hits::total      131752888                       # number of WriteReq hits (Count)
system.cpu.dcache.WriteReq.misses::cpu.data         5856                       # number of WriteReq misses (Count)
system.cpu.dcache.WriteReq.misses::total         5856                       # number of WriteReq misses (Count)
system.cpu.dcache.WriteReq.missLatency::cpu.data    290944942                       # number of WriteReq miss ticks (Tick)
system.cpu.dcache.WriteReq.missLatency::total    290944942                       # number of WriteReq miss ticks (Tick)
system.cpu.dcache.WriteReq.accesses::cpu.data    131758744                       # number of WriteReq accesses(hits+misses) (Count)
system.cpu.dcache.WriteReq.accesses::total    131758744                       # number of WriteReq accesses(hits+misses) (Count)
system.cpu.dcache.WriteReq.missRate::cpu.data     0.000044                       # miss rate for WriteReq accesses (Ratio)
system.cpu.dcache.WriteReq.missRate::total     0.000044                       # miss rate for WriteReq accesses (Ratio)
system.cpu.dcache.WriteReq.avgMissLatency::cpu.data 49683.220970                       # average WriteReq miss latency ((Tick/Count))
system.cpu.dcache.WriteReq.avgMissLatency::total 49683.220970                       # average WriteReq miss latency ((Tick/Count))
system.cpu.dcache.WriteReq.mshrHits::cpu.data         5036                       # number of WriteReq MSHR hits (Count)
system.cpu.dcache.WriteReq.mshrHits::total         5036                       # number of WriteReq MSHR hits (Count)
system.cpu.dcache.WriteReq.mshrMisses::cpu.data          820                       # number of WriteReq MSHR misses (Count)
system.cpu.dcache.WriteReq.mshrMisses::total          820                       # number of WriteReq MSHR misses (Count)
system.cpu.dcache.WriteReq.mshrMissLatency::cpu.data     50081981                       # number of WriteReq MSHR miss ticks (Tick)
system.cpu.dcache.WriteReq.mshrMissLatency::total     50081981                       # number of WriteReq MSHR miss ticks (Tick)
system.cpu.dcache.WriteReq.mshrMissRate::cpu.data     0.000006                       # mshr miss rate for WriteReq accesses (Ratio)
system.cpu.dcache.WriteReq.mshrMissRate::total     0.000006                       # mshr miss rate for WriteReq accesses (Ratio)
system.cpu.dcache.WriteReq.avgMshrMissLatency::cpu.data 61075.586585                       # average WriteReq mshr miss latency ((Tick/Count))
system.cpu.dcache.WriteReq.avgMshrMissLatency::total 61075.586585                       # average WriteReq mshr miss latency ((Tick/Count))
system.cpu.dcache.power_state.pwrStateResidencyTicks::UNDEFINED 118808427500                       # Cumulative time (in ticks) in various power states (Tick)
system.cpu.dcache.tags.tagsInUse          1014.792590                       # Average ticks per tags in use ((Tick/Count))
system.cpu.dcache.tags.totalRefs            369195276                       # Total number of references to valid blocks. (Count)
system.cpu.dcache.tags.sampledRefs               1608                       # Sample count of references to valid blocks. (Count)
system.cpu.dcache.tags.avgRefs           229599.052239                       # Average number of references to valid blocks. ((Count/Count))
system.cpu.dcache.tags.warmupTick              193000                       # The tick when the warmup percentage was hit. (Tick)
system.cpu.dcache.tags.occupancies::cpu.data  1014.792590                       # Average occupied blocks per tick, per requestor ((Count/Tick))
system.cpu.dcache.tags.avgOccs::cpu.data     0.991008                       # Average percentage of cache occupancy ((Ratio/Tick))
system.cpu.dcache.tags.avgOccs::total        0.991008                       # Average percentage of cache occupancy ((Ratio/Tick))
system.cpu.dcache.tags.occupanciesTaskId::1024         1015                       # Occupied blocks per task id (Count)
system.cpu.dcache.tags.ageTaskId_1024::0           43                       # Occupied blocks per task id, per block age (Count)
system.cpu.dcache.tags.ageTaskId_1024::1           67                       # Occupied blocks per task id, per block age (Count)
system.cpu.dcache.tags.ageTaskId_1024::4          905                       # Occupied blocks per task id, per block age (Count)
system.cpu.dcache.tags.ratioOccsTaskId::1024     0.991211                       # Ratio of occupied blocks and all blocks, per task id (Ratio)
system.cpu.dcache.tags.tagAccesses          738403858                       # Number of tag accesses (Count)
system.cpu.dcache.tags.dataAccesses         738403858                       # Number of data accesses (Count)
system.cpu.dcache.tags.power_state.pwrStateResidencyTicks::UNDEFINED 118808427500                       # Cumulative time (in ticks) in various power states (Tick)
system.cpu.decode.idleCycles                 55607675                       # Number of cycles decode is idle (Cycle)
system.cpu.decode.blockedCycles             113076794                       # Number of cycles decode is blocked (Cycle)
system.cpu.decode.runCycles                  54130432                       # Number of cycles decode is running (Cycle)
system.cpu.decode.unblockCycles              13278338                       # Number of cycles decode is unblocking (Cycle)
system.cpu.decode.squashCycles                1466462                       # Number of cycles decode is squashing (Cycle)
system.cpu.decode.branchResolved             34328710                       # Number of times decode resolved a branch (Count)
system.cpu.decode.branchMispred                   557                       # Number of times decode detected a branch misprediction (Count)
system.cpu.decode.decodedInsts              826867122                       # Number of instructions handled by decode (Count)
system.cpu.decode.squashedInsts                   588                       # Number of squashed instructions handled by decode (Count)
system.cpu.fetch.icacheStallCycles           78903151                       # Number of cycles fetch is stalled on an Icache miss (Cycle)
system.cpu.fetch.insts                      797907429                       # Number of instructions fetch has processed (Count)
system.cpu.fetch.branches                    42571453                       # Number of branches that fetch encountered (Count)
system.cpu.fetch.predictedBranches           37167312                       # Number of branches that fetch has predicted taken (Count)
system.cpu.fetch.cycles                     157189507                       # Number of cycles fetch has run and was not squashing or blocked (Cycle)
system.cpu.fetch.squashCycles                 2934018                       # Number of cycles fetch has spent squashing (Cycle)
system.cpu.fetch.miscStallCycles                    1                       # Number of cycles fetch has spent waiting on interrupts, or bad addresses, or out of MSHRs (Cycle)
system.cpu.fetch.icacheWaitRetryStallCycles           33                       # Number of stall cycles due to full MSHR (Cycle)
system.cpu.fetch.cacheLines                  78444057                       # Number of cache lines fetched (Count)
system.cpu.fetch.icacheSquashes                935773                       # Number of outstanding Icache misses that were squashed (Count)
system.cpu.fetch.nisnDist::samples          237559701                       # Number of instructions fetched each cycle (Total) (Count)
system.cpu.fetch.nisnDist::mean              3.684287                       # Number of instructions fetched each cycle (Total) (Count)
system.cpu.fetch.nisnDist::stdev             5.994254                       # Number of instructions fetched each cycle (Total) (Count)
system.cpu.fetch.nisnDist::underflows               0      0.00%      0.00% # Number of instructions fetched each cycle (Total) (Count)
system.cpu.fetch.nisnDist::0                148399622     62.47%     62.47% # Number of instructions fetched each cycle (Total) (Count)
system.cpu.fetch.nisnDist::1                  2884966      1.21%     63.68% # Number of instructions fetched each cycle (Total) (Count)
system.cpu.fetch.nisnDist::2                  9328936      3.93%     67.61% # Number of instructions fetched each cycle (Total) (Count)
system.cpu.fetch.nisnDist::3                   806053      0.34%     67.95% # Number of instructions fetched each cycle (Total) (Count)
system.cpu.fetch.nisnDist::4                 10585056      4.46%     72.40% # Number of instructions fetched each cycle (Total) (Count)
system.cpu.fetch.nisnDist::5                  1454610      0.61%     73.02% # Number of instructions fetched each cycle (Total) (Count)
system.cpu.fetch.nisnDist::6                  8413961      3.54%     76.56% # Number of instructions fetched each cycle (Total) (Count)
system.cpu.fetch.nisnDist::7                  1404928      0.59%     77.15% # Number of instructions fetched each cycle (Total) (Count)
system.cpu.fetch.nisnDist::8                  7376955      3.11%     80.26% # Number of instructions fetched each cycle (Total) (Count)
system.cpu.fetch.nisnDist::9                  1179342      0.50%     80.75% # Number of instructions fetched each cycle (Total) (Count)
system.cpu.fetch.nisnDist::10                 7012952      2.95%     83.70% # Number of instructions fetched each cycle (Total) (Count)
system.cpu.fetch.nisnDist::11                 1048223      0.44%     84.15% # Number of instructions fetched each cycle (Total) (Count)
system.cpu.fetch.nisnDist::12                 8411498      3.54%     87.69% # Number of instructions fetched each cycle (Total) (Count)
system.cpu.fetch.nisnDist::13                 2740588      1.15%     88.84% # Number of instructions fetched each cycle (Total) (Count)
system.cpu.fetch.nisnDist::14                 8254202      3.47%     92.31% # Number of instructions fetched each cycle (Total) (Count)
system.cpu.fetch.nisnDist::15                  655853      0.28%     92.59% # Number of instructions fetched each cycle (Total) (Count)
system.cpu.fetch.nisnDist::16                 7061627      2.97%     95.56% # Number of instructions fetched each cycle (Total) (Count)
system.cpu.fetch.nisnDist::17                 3036285      1.28%     96.84% # Number of instructions fetched each cycle (Total) (Count)
system.cpu.fetch.nisnDist::18                 1400658      0.59%     97.43% # Number of instructions fetched each cycle (Total) (Count)
system.cpu.fetch.nisnDist::19                 1344114      0.57%     98.00% # Number of instructions fetched each cycle (Total) (Count)
system.cpu.fetch.nisnDist::20                  277245      0.12%     98.11% # Number of instructions fetched each cycle (Total) (Count)
system.cpu.fetch.nisnDist::21                   93084      0.04%     98.15% # Number of instructions fetched each cycle (Total) (Count)
system.cpu.fetch.nisnDist::22                    1111      0.00%     98.15% # Number of instructions fetched each cycle (Total) (Count)
system.cpu.fetch.nisnDist::23                   91198      0.04%     98.19% # Number of instructions fetched each cycle (Total) (Count)
[...]
system.mem_ctrls.dram.bwRead::cpu.inst         681972                       # Total read bandwidth from this memory ((Byte/Second))
system.mem_ctrls.dram.bwRead::cpu.data         663118                       # Total read bandwidth from this memory ((Byte/Second))
system.mem_ctrls.dram.bwRead::total           1345090                       # Total read bandwidth from this memory ((Byte/Second))
system.mem_ctrls.dram.bwInstRead::cpu.inst       681972                       # Instruction read bandwidth from this memory ((Byte/Second))
system.mem_ctrls.dram.bwInstRead::total        681972                       # Instruction read bandwidth from this memory ((Byte/Second))
system.mem_ctrls.dram.bwWrite::writebacks       199312                       # Write bandwidth from this memory ((Byte/Second))
system.mem_ctrls.dram.bwWrite::total           199312                       # Write bandwidth from this memory ((Byte/Second))
system.mem_ctrls.dram.bwTotal::writebacks       199312                       # Total bandwidth to/from this memory ((Byte/Second))
system.mem_ctrls.dram.bwTotal::cpu.inst        681972                       # Total bandwidth to/from this memory ((Byte/Second))
system.mem_ctrls.dram.bwTotal::cpu.data        663118                       # Total bandwidth to/from this memory ((Byte/Second))
system.mem_ctrls.dram.bwTotal::total          1544402                       # Total bandwidth to/from this memory ((Byte/Second))
system.mem_ctrls.dram.readBursts                 2424                       # Number of DRAM read bursts (Count)
system.mem_ctrls.dram.writeBursts                1102                       # Number of DRAM write bursts (Count)
system.mem_ctrls.dram.perBankRdBursts::0          341                       # Per bank write bursts (Count)
system.mem_ctrls.dram.perBankRdBursts::1          121                       # Per bank write bursts (Count)
system.mem_ctrls.dram.perBankRdBursts::2          123                       # Per bank write bursts (Count)
system.mem_ctrls.dram.perBankRdBursts::3           83                       # Per bank write bursts (Count)
system.mem_ctrls.dram.perBankRdBursts::4          110                       # Per bank write bursts (Count)
system.mem_ctrls.dram.perBankRdBursts::5           78                       # Per bank write bursts (Count)
system.mem_ctrls.dram.perBankRdBursts::6          174                       # Per bank write bursts (Count)
system.mem_ctrls.dram.perBankRdBursts::7           45                       # Per bank write bursts (Count)
system.mem_ctrls.dram.perBankRdBursts::8          108                       # Per bank write bursts (Count)
system.mem_ctrls.dram.perBankRdBursts::9           48                       # Per bank write bursts (Count)
system.mem_ctrls.dram.perBankRdBursts::10           93                       # Per bank write bursts (Count)
system.mem_ctrls.dram.perBankRdBursts::11          204                       # Per bank write bursts (Count)
system.mem_ctrls.dram.perBankRdBursts::12          216                       # Per bank write bursts (Count)
system.mem_ctrls.dram.perBankRdBursts::13          294                       # Per bank write bursts (Count)
system.mem_ctrls.dram.perBankRdBursts::14          228                       # Per bank write bursts (Count)
system.mem_ctrls.dram.perBankRdBursts::15          158                       # Per bank write bursts (Count)
system.mem_ctrls.dram.perBankWrBursts::0          150                       # Per bank write bursts (Count)
system.mem_ctrls.dram.perBankWrBursts::1           42                       # Per bank write bursts (Count)
system.mem_ctrls.dram.perBankWrBursts::2           57                       # Per bank write bursts (Count)
system.mem_ctrls.dram.perBankWrBursts::3           46                       # Per bank write bursts (Count)
system.mem_ctrls.dram.perBankWrBursts::4           90                       # Per bank write bursts (Count)
system.mem_ctrls.dram.perBankWrBursts::5           42                       # Per bank write bursts (Count)
system.mem_ctrls.dram.perBankWrBursts::6           91                       # Per bank write bursts (Count)
system.mem_ctrls.dram.perBankWrBursts::7           25                       # Per bank write bursts (Count)
system.mem_ctrls.dram.perBankWrBursts::8           50                       # Per bank write bursts (Count)
system.mem_ctrls.dram.perBankWrBursts::9           60                       # Per bank write bursts (Count)
system.mem_ctrls.dram.perBankWrBursts::10          106                       # Per bank write bursts (Count)
system.mem_ctrls.dram.perBankWrBursts::11           49                       # Per bank write bursts (Count)
system.mem_ctrls.dram.perBankWrBursts::12           58                       # Per bank write bursts (Count)
system.mem_ctrls.dram.perBankWrBursts::13           70                       # Per bank write bursts (Count)
system.mem_ctrls.dram.perBankWrBursts::14          123                       # Per bank write bursts (Count)
system.mem_ctrls.dram.perBankWrBursts::15           43                       # Per bank write bursts (Count)
system.mem_ctrls.dram.totQLat                34434750                       # Total ticks spent queuing (Tick)
system.mem_ctrls.dram.totBusLat              12120000                       # Total ticks spent in databus transfers (Tick)
system.mem_ctrls.dram.totMemAccLat           79884750                       # Total ticks spent from burst creation until serviced by the DRAM (Tick)
system.mem_ctrls.dram.avgQLat                14205.75                       # Average queueing delay per DRAM burst ((Tick/Count))
system.mem_ctrls.dram.avgBusLat               5000.00                       # Average bus latency per DRAM burst ((Tick/Count))
system.mem_ctrls.dram.avgMemAccLat           32955.75                       # Average memory access latency per DRAM burst ((Tick/Count))
system.mem_ctrls.dram.readRowHits                1959                       # Number of row buffer hits during reads (Count)
system.mem_ctrls.dram.writeRowHits                843                       # Number of row buffer hits during writes (Count)
system.mem_ctrls.dram.readRowHitRate            80.82                       # Row buffer hit rate for reads (Ratio)
system.mem_ctrls.dram.writeRowHitRate           76.50                       # Row buffer hit rate for writes (Ratio)
system.mem_ctrls.dram.bytesPerActivate::samples          709                       # Bytes accessed per row activation (Byte)
system.mem_ctrls.dram.bytesPerActivate::mean   312.959097                       # Bytes accessed per row activation (Byte)
system.mem_ctrls.dram.bytesPerActivate::gmean   195.373162                       # Bytes accessed per row activation (Byte)
system.mem_ctrls.dram.bytesPerActivate::stdev   312.753373                       # Bytes accessed per row activation (Byte)
system.mem_ctrls.dram.bytesPerActivate::0-127          221     31.17%     31.17% # Bytes accessed per row activation (Byte)
system.mem_ctrls.dram.bytesPerActivate::128-255          194     27.36%     58.53% # Bytes accessed per row activation (Byte)
system.mem_ctrls.dram.bytesPerActivate::256-383           80     11.28%     69.82% # Bytes accessed per row activation (Byte)
system.mem_ctrls.dram.bytesPerActivate::384-511           63      8.89%     78.70% # Bytes accessed per row activation (Byte)
system.mem_ctrls.dram.bytesPerActivate::512-639           32      4.51%     83.22% # Bytes accessed per row activation (Byte)
system.mem_ctrls.dram.bytesPerActivate::640-767           17      2.40%     85.61% # Bytes accessed per row activation (Byte)
system.mem_ctrls.dram.bytesPerActivate::768-895           16      2.26%     87.87% # Bytes accessed per row activation (Byte)
system.mem_ctrls.dram.bytesPerActivate::896-1023           13      1.83%     89.70% # Bytes accessed per row activation (Byte)
system.mem_ctrls.dram.bytesPerActivate::1024-1151           73     10.30%    100.00% # Bytes accessed per row activation (Byte)
system.mem_ctrls.dram.bytesPerActivate::total          709                       # Bytes accessed per row activation (Byte)
system.mem_ctrls.dram.bytesRead                155136                       # Total bytes read (Byte)
system.mem_ctrls.dram.bytesWritten              70528                       # Total bytes written (Byte)
system.mem_ctrls.dram.avgRdBW                1.305766                       # Average DRAM read bandwidth in MiBytes/s ((Byte/Second))
system.mem_ctrls.dram.avgWrBW                0.593628                       # Average DRAM write bandwidth in MiBytes/s ((Byte/Second))
system.mem_ctrls.dram.peakBW                 12800.00                       # Theoretical peak bandwidth in MiByte/s ((Byte/Second))
system.mem_ctrls.dram.busUtil                    0.01                       # Data bus utilization in percentage (Ratio)
system.mem_ctrls.dram.busUtilRead                0.01                       # Data bus utilization in percentage for reads (Ratio)
system.mem_ctrls.dram.busUtilWrite               0.00                       # Data bus utilization in percentage for writes (Ratio)
system.mem_ctrls.dram.pageHitRate               79.47                       # Row buffer hit rate, read and write combined (Ratio)
system.mem_ctrls.dram.power_state.pwrStateResidencyTicks::UNDEFINED 118808427500                       # Cumulative time (in ticks) in various power states (Tick)
system.mem_ctrls.dram.rank0.actEnergy         2763180                       # Energy for activate commands per rank (pJ) (Joule)
system.mem_ctrls.dram.rank0.preEnergy         1442100                       # Energy for precharge commands per rank (pJ) (Joule)
system.mem_ctrls.dram.rank0.readEnergy        7675500                       # Energy for read commands per rank (pJ) (Joule)
system.mem_ctrls.dram.rank0.writeEnergy       2834460                       # Energy for write commands per rank (pJ) (Joule)
system.mem_ctrls.dram.rank0.refreshEnergy 9378177120.000002                       # Energy for refresh commands per rank (pJ) (Joule)
system.mem_ctrls.dram.rank0.actBackEnergy   1757608110                       # Energy for active background per rank (pJ) (Joule)
system.mem_ctrls.dram.rank0.preBackEnergy  44142345120                       # Energy for precharge background per rank (pJ) (Joule)
system.mem_ctrls.dram.rank0.actPowerDownEnergy            0                       # Energy for active power-down per rank (pJ) (Joule)
system.mem_ctrls.dram.rank0.prePowerDownEnergy            0                       # Energy for precharge power-down per rank (pJ) (Joule)
system.mem_ctrls.dram.rank0.selfRefreshEnergy            0                       # Energy for self refresh per rank (pJ) (Joule)
system.mem_ctrls.dram.rank0.totalEnergy   55292845590                       # Total energy per rank (pJ) (Joule)
system.mem_ctrls.dram.rank0.averagePower   465.394979                       # Core power per rank (mW) (Watt)
system.mem_ctrls.dram.rank0.totalIdleTime            0                       # Total Idle time Per DRAM Rank (Tick)
system.mem_ctrls.dram.rank0.pwrStateTime::IDLE 114744003000                       # Time in different power states (Tick)
system.mem_ctrls.dram.rank0.pwrStateTime::REF   3967080000                       # Time in different power states (Tick)
system.mem_ctrls.dram.rank0.pwrStateTime::SREF            0                       # Time in different power states (Tick)
system.mem_ctrls.dram.rank0.pwrStateTime::PRE_PDN            0                       # Time in different power states (Tick)
system.mem_ctrls.dram.rank0.pwrStateTime::ACT     97344500                       # Time in different power states (Tick)
system.mem_ctrls.dram.rank0.pwrStateTime::ACT_PDN            0                       # Time in different power states (Tick)
system.mem_ctrls.dram.rank1.actEnergy         2406180                       # Energy for activate commands per rank (pJ) (Joule)
system.mem_ctrls.dram.rank1.preEnergy         1248555                       # Energy for precharge commands per rank (pJ) (Joule)
system.mem_ctrls.dram.rank1.readEnergy        9631860                       # Energy for read commands per rank (pJ) (Joule)
system.mem_ctrls.dram.rank1.writeEnergy       2917980                       # Energy for write commands per rank (pJ) (Joule)
system.mem_ctrls.dram.rank1.refreshEnergy 9378177120.000002                       # Energy for refresh commands per rank (pJ) (Joule)
system.mem_ctrls.dram.rank1.actBackEnergy   1761046920                       # Energy for active background per rank (pJ) (Joule)
system.mem_ctrls.dram.rank1.preBackEnergy  44139449280                       # Energy for precharge background per rank (pJ) (Joule)
system.mem_ctrls.dram.rank1.actPowerDownEnergy            0                       # Energy for active power-down per rank (pJ) (Joule)
system.mem_ctrls.dram.rank1.prePowerDownEnergy            0                       # Energy for precharge power-down per rank (pJ) (Joule)
system.mem_ctrls.dram.rank1.selfRefreshEnergy            0                       # Energy for self refresh per rank (pJ) (Joule)
system.mem_ctrls.dram.rank1.totalEnergy   55294877895                       # Total energy per rank (pJ) (Joule)
system.mem_ctrls.dram.rank1.averagePower   465.412084                       # Core power per rank (mW) (Watt)
system.mem_ctrls.dram.rank1.totalIdleTime            0                       # Total Idle time Per DRAM Rank (Tick)
system.mem_ctrls.dram.rank1.pwrStateTime::IDLE 114736460750                       # Time in different power states (Tick)
system.mem_ctrls.dram.rank1.pwrStateTime::REF   3967080000                       # Time in different power states (Tick)
system.mem_ctrls.dram.rank1.pwrStateTime::SREF            0                       # Time in different power states (Tick)
system.mem_ctrls.dram.rank1.pwrStateTime::PRE_PDN            0                       # Time in different power states (Tick)
system.mem_ctrls.dram.rank1.pwrStateTime::ACT    104886750                       # Time in different power states (Tick)
system.mem_ctrls.dram.rank1.pwrStateTime::ACT_PDN            0                       # Time in different power states (Tick)
system.mem_ctrls.power_state.pwrStateResidencyTicks::UNDEFINED 118808427500                       # Cumulative time (in ticks) in various power states (Tick)
system.membus.transDist::ReadResp                1733                       # Transaction distribution (Count)
system.membus.transDist::WritebackDirty           370                       # Transaction distribution (Count)
system.membus.transDist::WritebackClean           767                       # Transaction distribution (Count)
system.membus.transDist::CleanEvict               223                       # Transaction distribution (Count)
system.membus.transDist::ReadExReq                763                       # Transaction distribution (Count)
system.membus.transDist::ReadExResp               763                       # Transaction distribution (Count)
system.membus.transDist::ReadCleanReq            1267                       # Transaction distribution (Count)
system.membus.transDist::ReadSharedReq            468                       # Transaction distribution (Count)
system.membus.transDist::InvalidateReq            377                       # Transaction distribution (Count)
system.membus.pktCount_system.cpu.icache.mem_side_port::system.mem_ctrls.port         3299                       # Packet count per connected requestor and responder (Count)
system.membus.pktCount_system.cpu.dcache.mem_side_port::system.mem_ctrls.port         3432                       # Packet count per connected requestor and responder (Count)
system.membus.pktCount::total                    6731                       # Packet count per connected requestor and responder (Count)
system.membus.pktSize_system.cpu.icache.mem_side_port::system.mem_ctrls.port       130048                       # Cumulative packet size per connected requestor and responder (Byte)
system.membus.pktSize_system.cpu.dcache.mem_side_port::system.mem_ctrls.port       102464                       # Cumulative packet size per connected requestor and responder (Byte)
system.membus.pktSize::total                   232512                       # Cumulative packet size per connected requestor and responder (Byte)
system.membus.snoops                                0                       # Total snoops (Count)
system.membus.snoopTraffic                          0                       # Total snoop traffic (Byte)
system.membus.snoopFanout::samples               2875                       # Request fanout histogram (Count)
system.membus.snoopFanout::mean              0.001043                       # Request fanout histogram (Count)
system.membus.snoopFanout::stdev             0.032292                       # Request fanout histogram (Count)
system.membus.snoopFanout::underflows               0      0.00%      0.00% # Request fanout histogram (Count)
system.membus.snoopFanout::0                     2872     99.90%     99.90% # Request fanout histogram (Count)
system.membus.snoopFanout::1                        3      0.10%    100.00% # Request fanout histogram (Count)
system.membus.snoopFanout::2                        0      0.00%    100.00% # Request fanout histogram (Count)
system.membus.snoopFanout::overflows                0      0.00%    100.00% # Request fanout histogram (Count)
system.membus.snoopFanout::min_value                0                       # Request fanout histogram (Count)
system.membus.snoopFanout::max_value                1                       # Request fanout histogram (Count)
system.membus.snoopFanout::total                 2875                       # Request fanout histogram (Count)
system.membus.power_state.pwrStateResidencyTicks::UNDEFINED 118808427500                       # Cumulative time (in ticks) in various power states (Tick)
system.membus.reqLayer0.occupancy             9243000                       # Layer occupancy (ticks) (Tick)
system.membus.reqLayer0.utilization               0.0                       # Layer utilization (Ratio)
system.membus.respLayer1.occupancy            6718750                       # Layer occupancy (ticks) (Tick)
system.membus.respLayer1.utilization              0.0                       # Layer utilization (Ratio)
system.membus.respLayer2.occupancy            6458500                       # Layer occupancy (ticks) (Tick)
system.membus.respLayer2.utilization              0.0                       # Layer utilization (Ratio)
system.membus.snoop_filter.totRequests           4235                       # Total number of requests made to the snoop filter. (Count)
system.membus.snoop_filter.hitSingleRequests         1361                       # Number of requests hitting in the snoop filter with a single holder of the requested data. (Count)
system.membus.snoop_filter.hitMultiRequests            2                       # Number of requests hitting in the snoop filter with multiple (>1) holders of the requested data. (Count)
system.membus.snoop_filter.totSnoops                0                       # Total number of snoops made to the snoop filter. (Count)
system.membus.snoop_filter.hitSingleSnoops            0                       # Number of snoops hitting in the snoop filter with a single holder of the requested data. (Count)
system.membus.snoop_filter.hitMultiSnoops            0                       # Number of snoops hitting in the snoop filter with multiple (>1) holders of the requested data. (Count)
system.voltage_domain.voltage                       1                       # Voltage in Volts (Volt)
system.workload.inst.arm                            0                       # number of arm instructions executed (Count)
system.workload.inst.quiesce                        0                       # number of quiesce instructions executed (Count)

---------- End Simulation Statistics   ----------
