
---------- Begin Simulation Statistics ----------
simSeconds                                   0.003527                       # Number of seconds simulated (Second)
simTicks                                   3526508000                       # Number of ticks simulated (Tick)
finalTick                                28463288548500                       # Number of ticks from beginning of simulation (restored from checkpoints and never reset) (Tick)
simFreq                                  1000000000000                       # The number of ticks per simulated second ((Tick/Second))
hostSeconds                                     27.57                       # Real time elapsed on the host (Second)
hostTickRate                                127895972                       # The number of ticks simulated per host second (ticks/s) ((Tick/Second))
hostMemory                                   52624252                       # Number of bytes of host memory used (Byte)
simInsts                                     10000022                       # Number of instructions simulated (Count)
simOps                                       10858372                       # Number of ops (including micro ops) simulated (Count)
hostInstRate                                   362670                       # Simulator instruction rate (inst/s) ((Count/Second))
hostOpRate                                     393800                       # Simulator op (including micro ops) rate (op/s) ((Count/Second))
system.clk_domain.clock                          1000                       # Clock period in ticks (Tick)
system.cpu.numCycles                               20                       # Number of cpu cycles simulated (Cycle)
system.cpu.cpi                               1.000000                       # CPI: cycles per instruction (core level) ((Cycle/Count))
system.cpu.ipc                               1.000000                       # IPC: instructions per cycle (core level) ((Count/Cycle))
system.cpu.numWorkItemsStarted                      0                       # Number of work items this cpu started (Count)
system.cpu.numWorkItemsCompleted                    0                       # Number of work items this cpu completed (Count)
system.cpu.commitStats0.numInsts                   20                       # Number of instructions committed (thread level) (Count)
system.cpu.commitStats0.numOps                     20                       # Number of ops (including micro ops) committed (thread level) (Count)
system.cpu.commitStats0.numInstsNotNOP              0                       # Number of instructions committed excluding NOPs or prefetches (Count)
system.cpu.commitStats0.numOpsNotNOP                0                       # Number of Ops (including micro ops) Simulated (Count)
system.cpu.commitStats0.cpi                  1.000000                       # CPI: cycles per instruction (thread level) ((Cycle/Count))
system.cpu.commitStats0.ipc                  1.000000                       # IPC: instructions per cycle (thread level) ((Count/Cycle))
system.cpu.commitStats0.numMemRefs                  0                       # Number of memory references committed (Count)
system.cpu.commitStats0.numFpInsts                  0                       # Number of float instructions (Count)
system.cpu.commitStats0.numIntInsts                20                       # Number of integer instructions (Count)
system.cpu.commitStats0.numLoadInsts                5                       # Number of load instructions (Count)
system.cpu.commitStats0.numRMWLoadInsts             0                       # Number of read-modify-write load instructions executed (Count)
system.cpu.commitStats0.numRMWALoadInsts            0                       # Number of atomic read-modify-write load instructions executed (Count)
system.cpu.commitStats0.numStoreInsts               0                       # Number of store instructions (Count)
system.cpu.commitStats0.numRMWStoreInsts            0                       # Number of read-modify-write store instructions executed (Count)
system.cpu.commitStats0.numRMWAStoreInsts            0                       # Number of atomic read-modify-write store instructions executed (Count)
system.cpu.commitStats0.numVecInsts                 0                       # Number of vector instructions (Count)
system.cpu.commitStats0.committedInstType::No_OpClass            0      0.00%      0.00% # Class of committed instruction. (Count)
system.cpu.commitStats0.committedInstType::IntAlu           15     75.00%     75.00% # Class of committed instruction. (Count)
system.cpu.commitStats0.committedInstType::IntMult            0      0.00%     75.00% # Class of committed instruction. (Count)
system.cpu.commitStats0.committedInstType::IntDiv            0      0.00%     75.00% # Class of committed instruction. (Count)
system.cpu.commitStats0.committedInstType::FloatAdd            0      0.00%     75.00% # Class of committed instruction. (Count)
system.cpu.commitStats0.committedInstType::FloatCmp            0      0.00%     75.00% # Class of committed instruction. (Count)
system.cpu.commitStats0.committedInstType::FloatCvt            0      0.00%     75.00% # Class of committed instruction. (Count)
system.cpu.commitStats0.committedInstType::FloatMult            0      0.00%     75.00% # Class of committed instruction. (Count)
system.cpu.commitStats0.committedInstType::FloatMultAcc            0      0.00%     75.00% # Class of committed instruction. (Count)
system.cpu.commitStats0.committedInstType::FloatDiv            0      0.00%     75.00% # Class of committed instruction. (Count)
system.cpu.commitStats0.committedInstType::FloatMisc            0      0.00%     75.00% # Class of committed instruction. (Count)
system.cpu.commitStats0.committedInstType::FloatSqrt            0      0.00%     75.00% # Class of committed instruction. (Count)
system.cpu.commitStats0.committedInstType::SimdAdd            0      0.00%     75.00% # Class of committed instruction. (Count)
system.cpu.commitStats0.committedInstType::SimdAddAcc            0      0.00%     75.00% # Class of committed instruction. (Count)
system.cpu.commitStats0.committedInstType::SimdAlu            0      0.00%     75.00% # Class of committed instruction. (Count)
system.cpu.commitStats0.committedInstType::SimdCmp            0      0.00%     75.00% # Class of committed instruction. (Count)
system.cpu.commitStats0.committedInstType::SimdCvt            0      0.00%     75.00% # Class of committed instruction. (Count)
system.cpu.commitStats0.committedInstType::SimdMisc            0      0.00%     75.00% # Class of committed instruction. (Count)
system.cpu.commitStats0.committedInstType::SimdMult            0      0.00%     75.00% # Class of committed instruction. (Count)
system.cpu.commitStats0.committedInstType::SimdMultAcc            0      0.00%     75.00% # Class of committed instruction. (Count)
system.cpu.commitStats0.committedInstType::SimdMatMultAcc            0      0.00%     75.00% # Class of committed instruction. (Count)
system.cpu.commitStats0.committedInstType::SimdShift            0      0.00%     75.00% # Class of committed instruction. (Count)
system.cpu.commitStats0.committedInstType::SimdShiftAcc            0      0.00%     75.00% # Class of committed instruction. (Count)
system.cpu.commitStats0.committedInstType::SimdDiv            0      0.00%     75.00% # Class of committed instruction. (Count)
system.cpu.commitStats0.committedInstType::SimdSqrt            0      0.00%     75.00% # Class of committed instruction. (Count)
system.cpu.commitStats0.committedInstType::SimdFloatAdd            0      0.00%     75.00% # Class of committed instruction. (Count)
system.cpu.commitStats0.committedInstType::SimdFloatAlu            0      0.00%     75.00% # Class of committed instruction. (Count)
system.cpu.commitStats0.committedInstType::SimdFloatCmp            0      0.00%     75.00% # Class of committed instruction. (Count)
system.cpu.commitStats0.committedInstType::SimdFloatCvt            0      0.00%     75.00% # Class of committed instruction. (Count)
system.cpu.commitStats0.committedInstType::SimdFloatDiv            0      0.00%     75.00% # Class of committed instruction. (Count)
system.cpu.commitStats0.committedInstType::SimdFloatMisc            0      0.00%     75.00% # Class of committed instruction. (Count)
system.cpu.commitStats0.committedInstType::SimdFloatMult            0      0.00%     75.00% # Class of committed instruction. (Count)
system.cpu.commitStats0.committedInstType::SimdFloatMultAcc            0      0.00%     75.00% # Class of committed instruction. (Count)
system.cpu.commitStats0.committedInstType::SimdFloatMatMultAcc            0      0.00%     75.00% # Class of committed instruction. (Count)
system.cpu.commitStats0.committedInstType::SimdFloatSqrt            0      0.00%     75.00% # Class of committed instruction. (Count)
system.cpu.commitStats0.committedInstType::SimdReduceAdd            0      0.00%     75.00% # Class of committed instruction. (Count)
system.cpu.commitStats0.committedInstType::SimdReduceAlu            0      0.00%     75.00% # Class of committed instruction. (Count)
system.cpu.commitStats0.committedInstType::SimdReduceCmp            0      0.00%     75.00% # Class of committed instruction. (Count)
system.cpu.commitStats0.committedInstType::SimdFloatReduceAdd            0      0.00%     75.00% # Class of committed instruction. (Count)
system.cpu.commitStats0.committedInstType::SimdFloatReduceCmp            0      0.00%     75.00% # Class of committed instruction. (Count)
system.cpu.commitStats0.committedInstType::SimdAes            0      0.00%     75.00% # Class of committed instruction. (Count)
system.cpu.commitStats0.committedInstType::SimdAesMix            0      0.00%     75.00% # Class of committed instruction. (Count)
system.cpu.commitStats0.committedInstType::SimdSha1Hash            0      0.00%     75.00% # Class of committed instruction. (Count)
system.cpu.commitStats0.committedInstType::SimdSha1Hash2            0      0.00%     75.00% # Class of committed instruction. (Count)
system.cpu.commitStats0.committedInstType::SimdSha256Hash            0      0.00%     75.00% # Class of committed instruction. (Count)
system.cpu.commitStats0.committedInstType::SimdSha256Hash2            0      0.00%     75.00% # Class of committed instruction. (Count)
system.cpu.commitStats0.committedInstType::SimdShaSigma2            0      0.00%     75.00% # Class of committed instruction. (Count)
system.cpu.commitStats0.committedInstType::SimdShaSigma3            0      0.00%     75.00% # Class of committed instruction. (Count)
system.cpu.commitStats0.committedInstType::SimdPredAlu            0      0.00%     75.00% # Class of committed instruction. (Count)
system.cpu.commitStats0.committedInstType::Matrix            0      0.00%     75.00% # Class of committed instruction. (Count)
system.cpu.commitStats0.committedInstType::MatrixMov            0      0.00%     75.00% # Class of committed instruction. (Count)
system.cpu.commitStats0.committedInstType::MatrixOP            0      0.00%     75.00% # Class of committed instruction. (Count)
system.cpu.commitStats0.committedInstType::MemRead            5     25.00%    100.00% # Class of committed instruction. (Count)
system.cpu.commitStats0.committedInstType::MemWrite            0      0.00%    100.00% # Class of committed instruction. (Count)
system.cpu.commitStats0.committedInstType::FloatMemRead            0      0.00%    100.00% # Class of committed instruction. (Count)
system.cpu.commitStats0.committedInstType::FloatMemWrite            0      0.00%    100.00% # Class of committed instruction. (Count)
system.cpu.commitStats0.committedInstType::IprAccess            0      0.00%    100.00% # Class of committed instruction. (Count)
system.cpu.commitStats0.committedInstType::InstPrefetch            0      0.00%    100.00% # Class of committed instruction. (Count)
system.cpu.commitStats0.committedInstType::SimdUnitStrideLoad            0      0.00%    100.00% # Class of committed instruction. (Count)
system.cpu.commitStats0.committedInstType::SimdUnitStrideStore            0      0.00%    100.00% # Class of committed instruction. (Count)
system.cpu.commitStats0.committedInstType::SimdUnitStrideMaskLoad            0      0.00%    100.00% # Class of committed instruction. (Count)
system.cpu.commitStats0.committedInstType::SimdUnitStrideMaskStore            0      0.00%    100.00% # Class of committed instruction. (Count)
system.cpu.commitStats0.committedInstType::SimdStridedLoad            0      0.00%    100.00% # Class of committed instruction. (Count)
system.cpu.commitStats0.committedInstType::SimdStridedStore            0      0.00%    100.00% # Class of committed instruction. (Count)
system.cpu.commitStats0.committedInstType::SimdIndexedLoad            0      0.00%    100.00% # Class of committed instruction. (Count)
system.cpu.commitStats0.committedInstType::SimdIndexedStore            0      0.00%    100.00% # Class of committed instruction. (Count)
system.cpu.commitStats0.committedInstType::SimdWholeRegisterLoad            0      0.00%    100.00% # Class of committed instruction. (Count)
system.cpu.commitStats0.committedInstType::SimdWholeRegisterStore            0      0.00%    100.00% # Class of committed instruction. (Count)
system.cpu.commitStats0.committedInstType::SimdUnitStrideFaultOnlyFirstLoad            0      0.00%    100.00% # Class of committed instruction. (Count)
system.cpu.commitStats0.committedInstType::SimdUnitStrideSegmentedLoad            0      0.00%    100.00% # Class of committed instruction. (Count)
system.cpu.commitStats0.committedInstType::SimdUnitStrideSegmentedStore            0      0.00%    100.00% # Class of committed instruction. (Count)
system.cpu.commitStats0.committedInstType::SimdExt            0      0.00%    100.00% # Class of committed instruction. (Count)
system.cpu.commitStats0.committedInstType::SimdFloatExt            0      0.00%    100.00% # Class of committed instruction. (Count)
system.cpu.commitStats0.committedInstType::SimdConfig            0      0.00%    100.00% # Class of committed instruction. (Count)
system.cpu.commitStats0.committedInstType::total           20                       # Class of committed instruction. (Count)
system.cpu.dcache.demandHits::cpu.data              3                       # number of demand (read+write) hits (Count)
system.cpu.dcache.demandHits::switch_cpus.data      4526987                       # number of demand (read+write) hits (Count)
system.cpu.dcache.demandHits::total           4526990                       # number of demand (read+write) hits (Count)
system.cpu.dcache.overallHits::cpu.data             3                       # number of overall hits (Count)
system.cpu.dcache.overallHits::switch_cpus.data      4526987                       # number of overall hits (Count)
system.cpu.dcache.overallHits::total          4526990                       # number of overall hits (Count)
system.cpu.dcache.demandMisses::cpu.data            2                       # number of demand (read+write) misses (Count)
system.cpu.dcache.demandMisses::switch_cpus.data        10518                       # number of demand (read+write) misses (Count)
system.cpu.dcache.demandMisses::total           10520                       # number of demand (read+write) misses (Count)
system.cpu.dcache.overallMisses::cpu.data            2                       # number of overall misses (Count)
system.cpu.dcache.overallMisses::switch_cpus.data        10518                       # number of overall misses (Count)
system.cpu.dcache.overallMisses::total          10520                       # number of overall misses (Count)
system.cpu.dcache.demandMissLatency::switch_cpus.data    440316859                       # number of demand (read+write) miss ticks (Tick)
system.cpu.dcache.demandMissLatency::total    440316859                       # number of demand (read+write) miss ticks (Tick)
system.cpu.dcache.overallMissLatency::switch_cpus.data    440316859                       # number of overall miss ticks (Tick)
system.cpu.dcache.overallMissLatency::total    440316859                       # number of overall miss ticks (Tick)
system.cpu.dcache.demandAccesses::cpu.data            5                       # number of demand (read+write) accesses (Count)
system.cpu.dcache.demandAccesses::switch_cpus.data      4537505                       # number of demand (read+write) accesses (Count)
system.cpu.dcache.demandAccesses::total       4537510                       # number of demand (read+write) accesses (Count)
system.cpu.dcache.overallAccesses::cpu.data            5                       # number of overall (read+write) accesses (Count)
system.cpu.dcache.overallAccesses::switch_cpus.data      4537505                       # number of overall (read+write) accesses (Count)
system.cpu.dcache.overallAccesses::total      4537510                       # number of overall (read+write) accesses (Count)
system.cpu.dcache.demandMissRate::cpu.data     0.400000                       # miss rate for demand accesses (Ratio)
system.cpu.dcache.demandMissRate::switch_cpus.data     0.002318                       # miss rate for demand accesses (Ratio)
system.cpu.dcache.demandMissRate::total      0.002318                       # miss rate for demand accesses (Ratio)
system.cpu.dcache.overallMissRate::cpu.data     0.400000                       # miss rate for overall accesses (Ratio)
system.cpu.dcache.overallMissRate::switch_cpus.data     0.002318                       # miss rate for overall accesses (Ratio)
system.cpu.dcache.overallMissRate::total     0.002318                       # miss rate for overall accesses (Ratio)
system.cpu.dcache.demandAvgMissLatency::switch_cpus.data 41863.173512                       # average overall miss latency in ticks ((Tick/Count))
system.cpu.dcache.demandAvgMissLatency::total 41855.214734                       # average overall miss latency in ticks ((Tick/Count))
system.cpu.dcache.overallAvgMissLatency::switch_cpus.data 41863.173512                       # average overall miss latency ((Tick/Count))
system.cpu.dcache.overallAvgMissLatency::total 41855.214734                       # average overall miss latency ((Tick/Count))
system.cpu.dcache.blockedCycles::no_mshrs        11728                       # number of cycles access was blocked (Cycle)
system.cpu.dcache.blockedCycles::no_targets            0                       # number of cycles access was blocked (Cycle)
system.cpu.dcache.blockedCauses::no_mshrs          309                       # number of times access was blocked (Count)
system.cpu.dcache.blockedCauses::no_targets            0                       # number of times access was blocked (Count)
system.cpu.dcache.avgBlocked::no_mshrs      37.954693                       # average number of cycles each access was blocked ((Cycle/Count))
system.cpu.dcache.avgBlocked::no_targets          nan                       # average number of cycles each access was blocked ((Cycle/Count))
system.cpu.dcache.writebacks::writebacks          666                       # number of writebacks (Count)
system.cpu.dcache.writebacks::total               666                       # number of writebacks (Count)
system.cpu.dcache.demandMshrHits::switch_cpus.data         5616                       # number of demand (read+write) MSHR hits (Count)
system.cpu.dcache.demandMshrHits::total          5616                       # number of demand (read+write) MSHR hits (Count)
system.cpu.dcache.overallMshrHits::switch_cpus.data         5616                       # number of overall MSHR hits (Count)
system.cpu.dcache.overallMshrHits::total         5616                       # number of overall MSHR hits (Count)
system.cpu.dcache.demandMshrMisses::switch_cpus.data         4902                       # number of demand (read+write) MSHR misses (Count)
system.cpu.dcache.demandMshrMisses::total         4902                       # number of demand (read+write) MSHR misses (Count)
system.cpu.dcache.overallMshrMisses::switch_cpus.data         4902                       # number of overall MSHR misses (Count)
system.cpu.dcache.overallMshrMisses::total         4902                       # number of overall MSHR misses (Count)
system.cpu.dcache.demandMshrMissLatency::switch_cpus.data    226984498                       # number of demand (read+write) MSHR miss ticks (Tick)
system.cpu.dcache.demandMshrMissLatency::total    226984498                       # number of demand (read+write) MSHR miss ticks (Tick)
system.cpu.dcache.overallMshrMissLatency::switch_cpus.data    226984498                       # number of overall MSHR miss ticks (Tick)
system.cpu.dcache.overallMshrMissLatency::total    226984498                       # number of overall MSHR miss ticks (Tick)
system.cpu.dcache.demandMshrMissRate::switch_cpus.data     0.001080                       # mshr miss ratio for demand accesses (Ratio)
system.cpu.dcache.demandMshrMissRate::total     0.001080                       # mshr miss ratio for demand accesses (Ratio)
system.cpu.dcache.overallMshrMissRate::switch_cpus.data     0.001080                       # mshr miss ratio for overall accesses (Ratio)
system.cpu.dcache.overallMshrMissRate::total     0.001080                       # mshr miss ratio for overall accesses (Ratio)
system.cpu.dcache.demandAvgMshrMissLatency::switch_cpus.data 46304.467156                       # average overall mshr miss latency ((Tick/Count))
system.cpu.dcache.demandAvgMshrMissLatency::total 46304.467156                       # average overall mshr miss latency ((Tick/Count))
system.cpu.dcache.overallAvgMshrMissLatency::switch_cpus.data 46304.467156                       # average overall mshr miss latency ((Tick/Count))
system.cpu.dcache.overallAvgMshrMissLatency::total 46304.467156                       # average overall mshr miss latency ((Tick/Count))
system.cpu.dcache.replacements                   3103                       # number of replacements (Count)
system.cpu.dcache.ReadReq.hits::cpu.data            3                       # number of ReadReq hits (Count)
system.cpu.dcache.ReadReq.hits::switch_cpus.data      3517291                       # number of ReadReq hits (Count)
system.cpu.dcache.ReadReq.hits::total         3517294                       # number of ReadReq hits (Count)
system.cpu.dcache.ReadReq.misses::cpu.data            2                       # number of ReadReq misses (Count)
system.cpu.dcache.ReadReq.misses::switch_cpus.data         8326                       # number of ReadReq misses (Count)
system.cpu.dcache.ReadReq.misses::total          8328                       # number of ReadReq misses (Count)
system.cpu.dcache.ReadReq.missLatency::switch_cpus.data    348031500                       # number of ReadReq miss ticks (Tick)
system.cpu.dcache.ReadReq.missLatency::total    348031500                       # number of ReadReq miss ticks (Tick)
system.cpu.dcache.ReadReq.accesses::cpu.data            5                       # number of ReadReq accesses(hits+misses) (Count)
system.cpu.dcache.ReadReq.accesses::switch_cpus.data      3525617                       # number of ReadReq accesses(hits+misses) (Count)
system.cpu.dcache.ReadReq.accesses::total      3525622                       # number of ReadReq accesses(hits+misses) (Count)
system.cpu.dcache.ReadReq.missRate::cpu.data     0.400000                       # miss rate for ReadReq accesses (Ratio)
system.cpu.dcache.ReadReq.missRate::switch_cpus.data     0.002362                       # miss rate for ReadReq accesses (Ratio)
system.cpu.dcache.ReadReq.missRate::total     0.002362                       # miss rate for ReadReq accesses (Ratio)
system.cpu.dcache.ReadReq.avgMissLatency::switch_cpus.data 41800.564497                       # average ReadReq miss latency ((Tick/Count))
system.cpu.dcache.ReadReq.avgMissLatency::total 41790.525937                       # average ReadReq miss latency ((Tick/Count))
system.cpu.dcache.ReadReq.mshrHits::switch_cpus.data         3856                       # number of ReadReq MSHR hits (Count)
system.cpu.dcache.ReadReq.mshrHits::total         3856                       # number of ReadReq MSHR hits (Count)
system.cpu.dcache.ReadReq.mshrMisses::switch_cpus.data         4470                       # number of ReadReq MSHR misses (Count)
system.cpu.dcache.ReadReq.mshrMisses::total         4470                       # number of ReadReq MSHR misses (Count)
system.cpu.dcache.ReadReq.mshrMissLatency::switch_cpus.data    206742000                       # number of ReadReq MSHR miss ticks (Tick)
system.cpu.dcache.ReadReq.mshrMissLatency::total    206742000                       # number of ReadReq MSHR miss ticks (Tick)
system.cpu.dcache.ReadReq.mshrMissRate::switch_cpus.data     0.001268                       # mshr miss rate for ReadReq accesses (Ratio)
system.cpu.dcache.ReadReq.mshrMissRate::total     0.001268                       # mshr miss rate for ReadReq accesses (Ratio)
system.cpu.dcache.ReadReq.avgMshrMissLatency::switch_cpus.data 46251.006711                       # average ReadReq mshr miss latency ((Tick/Count))
system.cpu.dcache.ReadReq.avgMshrMissLatency::total 46251.006711                       # average ReadReq mshr miss latency ((Tick/Count))
system.cpu.dcache.WriteReq.hits::switch_cpus.data      1009696                       # number of WriteReq hits (Count)
system.cpu.dcache.WriteReq.hits::total        1009696                       # number of WriteReq hits (Count)
system.cpu.dcache.WriteReq.misses::switch_cpus.data         2192                       # number of WriteReq misses (Count)
system.cpu.dcache.WriteReq.misses::total         2192                       # number of WriteReq misses (Count)
system.cpu.dcache.WriteReq.missLatency::switch_cpus.data     92285359                       # number of WriteReq miss ticks (Tick)
system.cpu.dcache.WriteReq.missLatency::total     92285359                       # number of WriteReq miss ticks (Tick)
system.cpu.dcache.WriteReq.accesses::switch_cpus.data      1011888                       # number of WriteReq accesses(hits+misses) (Count)
system.cpu.dcache.WriteReq.accesses::total      1011888                       # number of WriteReq accesses(hits+misses) (Count)
system.cpu.dcache.WriteReq.missRate::switch_cpus.data     0.002166                       # miss rate for WriteReq accesses (Ratio)
system.cpu.dcache.WriteReq.missRate::total     0.002166                       # miss rate for WriteReq accesses (Ratio)
system.cpu.dcache.WriteReq.avgMissLatency::switch_cpus.data 42100.984945                       # average WriteReq miss latency ((Tick/Count))
system.cpu.dcache.WriteReq.avgMissLatency::total 42100.984945                       # average WriteReq miss latency ((Tick/Count))
system.cpu.dcache.WriteReq.mshrHits::switch_cpus.data         1760                       # number of WriteReq MSHR hits (Count)
system.cpu.dcache.WriteReq.mshrHits::total         1760                       # number of WriteReq MSHR hits (Count)
system.cpu.dcache.WriteReq.mshrMisses::switch_cpus.data          432                       # number of WriteReq MSHR misses (Count)
system.cpu.dcache.WriteReq.mshrMisses::total          432                       # number of WriteReq MSHR misses (Count)
system.cpu.dcache.WriteReq.mshrMissLatency::switch_cpus.data     20242498                       # number of WriteReq MSHR miss ticks (Tick)
system.cpu.dcache.WriteReq.mshrMissLatency::total     20242498                       # number of WriteReq MSHR miss ticks (Tick)
system.cpu.dcache.WriteReq.mshrMissRate::switch_cpus.data     0.000427                       # mshr miss rate for WriteReq accesses (Ratio)
system.cpu.dcache.WriteReq.mshrMissRate::total     0.000427                       # mshr miss rate for WriteReq accesses (Ratio)
system.cpu.dcache.WriteReq.avgMshrMissLatency::switch_cpus.data 46857.634259                       # average WriteReq mshr miss latency ((Tick/Count))
system.cpu.dcache.WriteReq.avgMshrMissLatency::total 46857.634259                       # average WriteReq mshr miss latency ((Tick/Count))
system.cpu.dcache.power_state.pwrStateResidencyTicks::UNDEFINED 28463288548500                       # Cumulative time (in ticks) in various power states (Tick)
system.cpu.dcache.tags.tagsInUse          1531.605726                       # Average ticks per tags in use ((Tick/Count))
system.cpu.dcache.tags.totalRefs                75960                       # Total number of references to valid blocks. (Count)
system.cpu.dcache.tags.sampledRefs               3103                       # Sample count of references to valid blocks. (Count)
system.cpu.dcache.tags.avgRefs              24.479536                       # Average number of references to valid blocks. ((Count/Count))
system.cpu.dcache.tags.warmupTick        28459762045500                       # The tick when the warmup percentage was hit. (Tick)
system.cpu.dcache.tags.occupancies::cpu.data     1.999997                       # Average occupied blocks per tick, per requestor ((Count/Tick))
system.cpu.dcache.tags.occupancies::switch_cpus.data  1529.605729                       # Average occupied blocks per tick, per requestor ((Count/Tick))
system.cpu.dcache.tags.avgOccs::cpu.data     0.000488                       # Average percentage of cache occupancy ((Ratio/Tick))
system.cpu.dcache.tags.avgOccs::switch_cpus.data     0.373439                       # Average percentage of cache occupancy ((Ratio/Tick))
system.cpu.dcache.tags.avgOccs::total        0.373927                       # Average percentage of cache occupancy ((Ratio/Tick))
system.cpu.dcache.tags.occupanciesTaskId::1024         1799                       # Occupied blocks per task id (Count)
system.cpu.dcache.tags.ageTaskId_1024::0           21                       # Occupied blocks per task id, per block age (Count)
system.cpu.dcache.tags.ageTaskId_1024::1          102                       # Occupied blocks per task id, per block age (Count)
system.cpu.dcache.tags.ageTaskId_1024::2          207                       # Occupied blocks per task id, per block age (Count)
system.cpu.dcache.tags.ageTaskId_1024::3         1469                       # Occupied blocks per task id, per block age (Count)
system.cpu.dcache.tags.ratioOccsTaskId::1024     0.439209                       # Ratio of occupied blocks and all blocks, per task id (Ratio)
system.cpu.dcache.tags.tagAccesses            9079922                       # Number of tag accesses (Count)
system.cpu.dcache.tags.dataAccesses           9079922                       # Number of data accesses (Count)
system.cpu.dcache.tags.power_state.pwrStateResidencyTicks::UNDEFINED 28463288548500                       # Cumulative time (in ticks) in various power states (Tick)
system.cpu.exec_context.thread_0.numMatAluAccesses            0                       # Number of matrix alu accesses (Count)
system.cpu.exec_context.thread_0.numCallsReturns            0                       # Number of times a function call or return occured (Count)
system.cpu.exec_context.thread_0.numMatInsts            0                       # Number of matrix instructions (Count)
system.cpu.exec_context.thread_0.numIdleCycles            0                       # Number of idle cycles (Cycle)
system.cpu.exec_context.thread_0.numBusyCycles           20                       # Number of busy cycles (Cycle)
system.cpu.exec_context.thread_0.notIdleFraction            1                       # Percentage of non-idle cycles (Ratio)
system.cpu.exec_context.thread_0.idleFraction            0                       # Percentage of idle cycles (Ratio)
system.cpu.executeStats0.numInsts                   0                       # Number of executed instructions (Count)
system.cpu.executeStats0.numNop                     0                       # Number of nop insts executed (Count)
system.cpu.executeStats0.numBranches                0                       # Number of branches executed (Count)
system.cpu.executeStats0.numLoadInsts               0                       # Number of load instructions executed (Count)
system.cpu.executeStats0.numStoreInsts              5                       # Number of stores executed (Count)
system.cpu.executeStats0.instRate                   0                       # Inst execution rate ((Count/Cycle))
system.cpu.executeStats0.numFpRegWrites             0                       # Number of times the floating registers were written (Count)
system.cpu.executeStats0.numIntAluAccesses           20                       # Number of integer alu accesses (Count)
system.cpu.executeStats0.numIntRegReads            28                       # Number of times the integer registers were read (Count)
system.cpu.executeStats0.numIntRegWrites           20                       # Number of times the integer registers were written (Count)
system.cpu.executeStats0.numMemRefs                 5                       # Number of memory refs (Count)
system.cpu.executeStats0.numVecAluAccesses            0                       # Number of vector alu accesses (Count)
system.cpu.executeStats0.numDiscardedOps            0                       # Number of ops (including micro ops) which were discarded before commit (Count)
system.cpu.fetchStats0.numInsts                    20                       # Number of instructions fetched (thread level) (Count)
system.cpu.fetchStats0.numOps                      20                       # Number of ops (including micro ops) fetched (thread level) (Count)
system.cpu.fetchStats0.fetchRate                    1                       # Number of inst fetches per cycle ((Count/Cycle))
system.cpu.fetchStats0.branchRate                   0                       # Number of branch fetches per cycle (Ratio)
system.cpu.fetchStats0.numFetchSuspends             0                       # Number of times Execute suspended instruction fetching (Count)
system.cpu.icache.demandHits::cpu.inst             18                       # number of demand (read+write) hits (Count)
system.cpu.icache.demandHits::switch_cpus.inst      2520941                       # number of demand (read+write) hits (Count)
system.cpu.icache.demandHits::total           2520959                       # number of demand (read+write) hits (Count)
system.cpu.icache.overallHits::cpu.inst            18                       # number of overall hits (Count)
system.cpu.icache.overallHits::switch_cpus.inst      2520941                       # number of overall hits (Count)
system.cpu.icache.overallHits::total          2520959                       # number of overall hits (Count)
system.cpu.icache.demandMisses::cpu.inst            2                       # number of demand (read+write) misses (Count)
system.cpu.icache.demandMisses::switch_cpus.inst          625                       # number of demand (read+write) misses (Count)
system.cpu.icache.demandMisses::total             627                       # number of demand (read+write) misses (Count)
system.cpu.icache.overallMisses::cpu.inst            2                       # number of overall misses (Count)
system.cpu.icache.overallMisses::switch_cpus.inst          625                       # number of overall misses (Count)
system.cpu.icache.overallMisses::total            627                       # number of overall misses (Count)
system.cpu.icache.demandMissLatency::switch_cpus.inst     47319000                       # number of demand (read+write) miss ticks (Tick)
system.cpu.icache.demandMissLatency::total     47319000                       # number of demand (read+write) miss ticks (Tick)
system.cpu.icache.overallMissLatency::switch_cpus.inst     47319000                       # number of overall miss ticks (Tick)
system.cpu.icache.overallMissLatency::total     47319000                       # number of overall miss ticks (Tick)
system.cpu.icache.demandAccesses::cpu.inst           20                       # number of demand (read+write) accesses (Count)
system.cpu.icache.demandAccesses::switch_cpus.inst      2521566                       # number of demand (read+write) accesses (Count)
system.cpu.icache.demandAccesses::total       2521586                       # number of demand (read+write) accesses (Count)
system.cpu.icache.overallAccesses::cpu.inst           20                       # number of overall (read+write) accesses (Count)
system.cpu.icache.overallAccesses::switch_cpus.inst      2521566                       # number of overall (read+write) accesses (Count)
system.cpu.icache.overallAccesses::total      2521586                       # number of overall (read+write) accesses (Count)
system.cpu.icache.demandMissRate::cpu.inst     0.100000                       # miss rate for demand accesses (Ratio)
system.cpu.icache.demandMissRate::switch_cpus.inst     0.000248                       # miss rate for demand accesses (Ratio)
system.cpu.icache.demandMissRate::total      0.000249                       # miss rate for demand accesses (Ratio)
system.cpu.icache.overallMissRate::cpu.inst     0.100000                       # miss rate for overall accesses (Ratio)
system.cpu.icache.overallMissRate::switch_cpus.inst     0.000248                       # miss rate for overall accesses (Ratio)
system.cpu.icache.overallMissRate::total     0.000249                       # miss rate for overall accesses (Ratio)
system.cpu.icache.demandAvgMissLatency::switch_cpus.inst 75710.400000                       # average overall miss latency in ticks ((Tick/Count))
system.cpu.icache.demandAvgMissLatency::total 75468.899522                       # average overall miss latency in ticks ((Tick/Count))
system.cpu.icache.overallAvgMissLatency::switch_cpus.inst 75710.400000                       # average overall miss latency ((Tick/Count))
system.cpu.icache.overallAvgMissLatency::total 75468.899522                       # average overall miss latency ((Tick/Count))
system.cpu.icache.blockedCycles::no_mshrs          115                       # number of cycles access was blocked (Cycle)
system.cpu.icache.blockedCycles::no_targets            0                       # number of cycles access was blocked (Cycle)
system.cpu.icache.blockedCauses::no_mshrs            2                       # number of times access was blocked (Count)
system.cpu.icache.blockedCauses::no_targets            0                       # number of times access was blocked (Count)
system.cpu.icache.avgBlocked::no_mshrs      57.500000                       # average number of cycles each access was blocked ((Cycle/Count))
system.cpu.icache.avgBlocked::no_targets          nan                       # average number of cycles each access was blocked ((Cycle/Count))
system.cpu.icache.demandMshrHits::switch_cpus.inst          198                       # number of demand (read+write) MSHR hits (Count)
system.cpu.icache.demandMshrHits::total           198                       # number of demand (read+write) MSHR hits (Count)
system.cpu.icache.overallMshrHits::switch_cpus.inst          198                       # number of overall MSHR hits (Count)
system.cpu.icache.overallMshrHits::total          198                       # number of overall MSHR hits (Count)
system.cpu.icache.demandMshrMisses::switch_cpus.inst          427                       # number of demand (read+write) MSHR misses (Count)
system.cpu.icache.demandMshrMisses::total          427                       # number of demand (read+write) MSHR misses (Count)
system.cpu.icache.overallMshrMisses::switch_cpus.inst          427                       # number of overall MSHR misses (Count)
system.cpu.icache.overallMshrMisses::total          427                       # number of overall MSHR misses (Count)
system.cpu.icache.demandMshrMissLatency::switch_cpus.inst     34354500                       # number of demand (read+write) MSHR miss ticks (Tick)
system.cpu.icache.demandMshrMissLatency::total     34354500                       # number of demand (read+write) MSHR miss ticks (Tick)
system.cpu.icache.overallMshrMissLatency::switch_cpus.inst     34354500                       # number of overall MSHR miss ticks (Tick)
system.cpu.icache.overallMshrMissLatency::total     34354500                       # number of overall MSHR miss ticks (Tick)
system.cpu.icache.demandMshrMissRate::switch_cpus.inst     0.000169                       # mshr miss ratio for demand accesses (Ratio)
system.cpu.icache.demandMshrMissRate::total     0.000169                       # mshr miss ratio for demand accesses (Ratio)
system.cpu.icache.overallMshrMissRate::switch_cpus.inst     0.000169                       # mshr miss ratio for overall accesses (Ratio)
system.cpu.icache.overallMshrMissRate::total     0.000169                       # mshr miss ratio for overall accesses (Ratio)
system.cpu.icache.demandAvgMshrMissLatency::switch_cpus.inst 80455.503513                       # average overall mshr miss latency ((Tick/Count))
system.cpu.icache.demandAvgMshrMissLatency::total 80455.503513                       # average overall mshr miss latency ((Tick/Count))
system.cpu.icache.overallAvgMshrMissLatency::switch_cpus.inst 80455.503513                       # average overall mshr miss latency ((Tick/Count))
system.cpu.icache.overallAvgMshrMissLatency::total 80455.503513                       # average overall mshr miss latency ((Tick/Count))
system.cpu.icache.replacements                      0                       # number of replacements (Count)
system.cpu.icache.ReadReq.hits::cpu.inst           18                       # number of ReadReq hits (Count)
system.cpu.icache.ReadReq.hits::switch_cpus.inst      2520941                       # number of ReadReq hits (Count)
system.cpu.icache.ReadReq.hits::total         2520959                       # number of ReadReq hits (Count)
system.cpu.icache.ReadReq.misses::cpu.inst            2                       # number of ReadReq misses (Count)
system.cpu.icache.ReadReq.misses::switch_cpus.inst          625                       # number of ReadReq misses (Count)
system.cpu.icache.ReadReq.misses::total           627                       # number of ReadReq misses (Count)
system.cpu.icache.ReadReq.missLatency::switch_cpus.inst     47319000                       # number of ReadReq miss ticks (Tick)
system.cpu.icache.ReadReq.missLatency::total     47319000                       # number of ReadReq miss ticks (Tick)
system.cpu.icache.ReadReq.accesses::cpu.inst           20                       # number of ReadReq accesses(hits+misses) (Count)
system.cpu.icache.ReadReq.accesses::switch_cpus.inst      2521566                       # number of ReadReq accesses(hits+misses) (Count)
system.cpu.icache.ReadReq.accesses::total      2521586                       # number of ReadReq accesses(hits+misses) (Count)
system.cpu.icache.ReadReq.missRate::cpu.inst     0.100000                       # miss rate for ReadReq accesses (Ratio)
system.cpu.icache.ReadReq.missRate::switch_cpus.inst     0.000248                       # miss rate for ReadReq accesses (Ratio)
system.cpu.icache.ReadReq.missRate::total     0.000249                       # miss rate for ReadReq accesses (Ratio)
system.cpu.icache.ReadReq.avgMissLatency::switch_cpus.inst 75710.400000                       # average ReadReq miss latency ((Tick/Count))
system.cpu.icache.ReadReq.avgMissLatency::total 75468.899522                       # average ReadReq miss latency ((Tick/Count))
system.cpu.icache.ReadReq.mshrHits::switch_cpus.inst          198                       # number of ReadReq MSHR hits (Count)
system.cpu.icache.ReadReq.mshrHits::total          198                       # number of ReadReq MSHR hits (Count)
system.cpu.icache.ReadReq.mshrMisses::switch_cpus.inst          427                       # number of ReadReq MSHR misses (Count)
system.cpu.icache.ReadReq.mshrMisses::total          427                       # number of ReadReq MSHR misses (Count)
system.cpu.icache.ReadReq.mshrMissLatency::switch_cpus.inst     34354500                       # number of ReadReq MSHR miss ticks (Tick)
system.cpu.icache.ReadReq.mshrMissLatency::total     34354500                       # number of ReadReq MSHR miss ticks (Tick)
system.cpu.icache.ReadReq.mshrMissRate::switch_cpus.inst     0.000169                       # mshr miss rate for ReadReq accesses (Ratio)
system.cpu.icache.ReadReq.mshrMissRate::total     0.000169                       # mshr miss rate for ReadReq accesses (Ratio)
system.cpu.icache.ReadReq.avgMshrMissLatency::switch_cpus.inst 80455.503513                       # average ReadReq mshr miss latency ((Tick/Count))
system.cpu.icache.ReadReq.avgMshrMissLatency::total 80455.503513                       # average ReadReq mshr miss latency ((Tick/Count))
system.cpu.icache.power_state.pwrStateResidencyTicks::UNDEFINED 28463288548500                       # Cumulative time (in ticks) in various power states (Tick)
system.cpu.icache.tags.tagsInUse           364.164033                       # Average ticks per tags in use ((Tick/Count))
system.cpu.icache.tags.totalRefs                    2                       # Total number of references to valid blocks. (Count)
system.cpu.icache.tags.sampledRefs                  2                       # Sample count of references to valid blocks. (Count)
system.cpu.icache.tags.avgRefs                      1                       # Average number of references to valid blocks. ((Count/Count))
system.cpu.icache.tags.warmupTick        28459762041000                       # The tick when the warmup percentage was hit. (Tick)
system.cpu.icache.tags.occupancies::cpu.inst     1.999999                       # Average occupied blocks per tick, per requestor ((Count/Tick))
system.cpu.icache.tags.occupancies::switch_cpus.inst   362.164034                       # Average occupied blocks per tick, per requestor ((Count/Tick))
system.cpu.icache.tags.avgOccs::cpu.inst     0.000488                       # Average percentage of cache occupancy ((Ratio/Tick))
system.cpu.icache.tags.avgOccs::switch_cpus.inst     0.088419                       # Average percentage of cache occupancy ((Ratio/Tick))
system.cpu.icache.tags.avgOccs::total        0.088907                       # Average percentage of cache occupancy ((Ratio/Tick))
system.cpu.icache.tags.occupanciesTaskId::1024          427                       # Occupied blocks per task id (Count)
system.cpu.icache.tags.ageTaskId_1024::0            3                       # Occupied blocks per task id, per block age (Count)
system.cpu.icache.tags.ageTaskId_1024::1           51                       # Occupied blocks per task id, per block age (Count)
system.cpu.icache.tags.ageTaskId_1024::2            3                       # Occupied blocks per task id, per block age (Count)
system.cpu.icache.tags.ageTaskId_1024::3          370                       # Occupied blocks per task id, per block age (Count)
system.cpu.icache.tags.ratioOccsTaskId::1024     0.104248                       # Ratio of occupied blocks and all blocks, per task id (Ratio)
system.cpu.icache.tags.tagAccesses            5043601                       # Number of tag accesses (Count)
system.cpu.icache.tags.dataAccesses           5043601                       # Number of data accesses (Count)
system.cpu.icache.tags.power_state.pwrStateResidencyTicks::UNDEFINED 28463288548500                       # Cumulative time (in ticks) in various power states (Tick)
system.cpu.mmu.alignFaults                          0                       # Number of MMU faults due to alignment restrictions (Count)
system.cpu.mmu.prefetchFaults                       0                       # Number of MMU faults due to prefetch (Count)
system.cpu.mmu.domainFaults                         0                       # Number of MMU faults due to domain restrictions (Count)
system.cpu.mmu.permsFaults                          0                       # Number of MMU faults due to permissions restrictions (Count)
system.cpu.mmu.dtb.readHits                         0                       # Read hits (Count)
system.cpu.mmu.dtb.readMisses                       0                       # Read misses (Count)
system.cpu.mmu.dtb.writeHits                        0                       # Write hits (Count)
system.cpu.mmu.dtb.writeMisses                      0                       # Write misses (Count)
system.cpu.mmu.dtb.inserts                          0                       # Number of times an entry is inserted into the TLB (Count)
system.cpu.mmu.dtb.flushTlb                         1                       # Number of times a TLB invalidation was requested (Count)
system.cpu.mmu.dtb.flushedEntries                   0                       # Number of entries that have been flushed from TLB (Count)
system.cpu.mmu.dtb.readAccesses                     0                       # Read accesses (Count)
system.cpu.mmu.dtb.writeAccesses                    0                       # Write accesses (Count)
system.cpu.mmu.dtb.hits                             0                       # Total TLB (inst and data) hits (Count)
system.cpu.mmu.dtb.misses                           0                       # Total TLB (inst and data) misses (Count)
system.cpu.mmu.dtb.accesses                         0                       # Total TLB (inst and data) accesses (Count)
system.cpu.mmu.dtb_walker.walks                     0                       # Table walker walks requested (Count)
system.cpu.mmu.dtb_walker.requestOrigin_Requested::Data            0                       # Table walker requests started/completed, data/inst (Count)
system.cpu.mmu.dtb_walker.requestOrigin_Requested::Inst            0                       # Table walker requests started/completed, data/inst (Count)
system.cpu.mmu.dtb_walker.requestOrigin_Requested::total            0                       # Table walker requests started/completed, data/inst (Count)
system.cpu.mmu.dtb_walker.requestOrigin_Completed::Data            0                       # Table walker requests started/completed, data/inst (Count)
system.cpu.mmu.dtb_walker.requestOrigin_Completed::Inst            0                       # Table walker requests started/completed, data/inst (Count)
system.cpu.mmu.dtb_walker.requestOrigin_Completed::total            0                       # Table walker requests started/completed, data/inst (Count)
system.cpu.mmu.dtb_walker.requestOrigin::total            0                       # Table walker requests started/completed, data/inst (Count)
system.cpu.mmu.dtb_walker.power_state.pwrStateResidencyTicks::UNDEFINED 28463288548500                       # Cumulative time (in ticks) in various power states (Tick)
system.cpu.mmu.itb.instHits                         0                       # Inst hits (Count)
system.cpu.mmu.itb.instMisses                       0                       # Inst misses (Count)
system.cpu.mmu.itb.inserts                          0                       # Number of times an entry is inserted into the TLB (Count)
system.cpu.mmu.itb.flushTlb                         1                       # Number of times a TLB invalidation was requested (Count)
system.cpu.mmu.itb.flushedEntries                   0                       # Number of entries that have been flushed from TLB (Count)
system.cpu.mmu.itb.instAccesses                     0                       # Inst accesses (Count)
system.cpu.mmu.itb.hits                             0                       # Total TLB (inst and data) hits (Count)
system.cpu.mmu.itb.misses                           0                       # Total TLB (inst and data) misses (Count)
system.cpu.mmu.itb.accesses                         0                       # Total TLB (inst and data) accesses (Count)
system.cpu.mmu.itb_walker.walks                     0                       # Table walker walks requested (Count)
system.cpu.mmu.itb_walker.requestOrigin_Requested::Data            0                       # Table walker requests started/completed, data/inst (Count)
system.cpu.mmu.itb_walker.requestOrigin_Requested::Inst            0                       # Table walker requests started/completed, data/inst (Count)
system.cpu.mmu.itb_walker.requestOrigin_Requested::total            0                       # Table walker requests started/completed, data/inst (Count)
system.cpu.mmu.itb_walker.requestOrigin_Completed::Data            0                       # Table walker requests started/completed, data/inst (Count)
system.cpu.mmu.itb_walker.requestOrigin_Completed::Inst            0                       # Table walker requests started/completed, data/inst (Count)
system.cpu.mmu.itb_walker.requestOrigin_Completed::total            0                       # Table walker requests started/completed, data/inst (Count)
system.cpu.mmu.itb_walker.requestOrigin::total            0                       # Table walker requests started/completed, data/inst (Count)
system.cpu.mmu.itb_walker.power_state.pwrStateResidencyTicks::UNDEFINED 28463288548500                       # Cumulative time (in ticks) in various power states (Tick)
system.cpu.mmu.l2_shared.instHits                   0                       # Inst hits (Count)
system.cpu.mmu.l2_shared.instMisses                 0                       # Inst misses (Count)
system.cpu.mmu.l2_shared.inserts                    0                       # Number of times an entry is inserted into the TLB (Count)
system.cpu.mmu.l2_shared.flushTlb                   1                       # Number of times a TLB invalidation was requested (Count)
system.cpu.mmu.l2_shared.flushedEntries             0                       # Number of entries that have been flushed from TLB (Count)
system.cpu.mmu.l2_shared.instAccesses               0                       # Inst accesses (Count)
system.cpu.mmu.l2_shared.hits                       0                       # Total TLB (inst and data) hits (Count)
system.cpu.mmu.l2_shared.misses                     0                       # Total TLB (inst and data) misses (Count)
system.cpu.mmu.l2_shared.accesses                   0                       # Total TLB (inst and data) accesses (Count)
system.cpu.mmu.stage2_dtb.readHits                  0                       # Read hits (Count)
system.cpu.mmu.stage2_dtb.readMisses                0                       # Read misses (Count)
system.cpu.mmu.stage2_dtb.writeHits                 0                       # Write hits (Count)
system.cpu.mmu.stage2_dtb.writeMisses               0                       # Write misses (Count)
system.cpu.mmu.stage2_dtb.inserts                   0                       # Number of times an entry is inserted into the TLB (Count)
system.cpu.mmu.stage2_dtb.flushTlb                  1                       # Number of times a TLB invalidation was requested (Count)
system.cpu.mmu.stage2_dtb.flushedEntries            0                       # Number of entries that have been flushed from TLB (Count)
system.cpu.mmu.stage2_dtb.readAccesses              0                       # Read accesses (Count)
system.cpu.mmu.stage2_dtb.writeAccesses             0                       # Write accesses (Count)
system.cpu.mmu.stage2_dtb.hits                      0                       # Total TLB (inst and data) hits (Count)
system.cpu.mmu.stage2_dtb.misses                    0                       # Total TLB (inst and data) misses (Count)
system.cpu.mmu.stage2_dtb.accesses                  0                       # Total TLB (inst and data) accesses (Count)
system.cpu.mmu.stage2_dtb_walker.walks              0                       # Table walker walks requested (Count)
system.cpu.mmu.stage2_dtb_walker.requestOrigin_Requested::Data            0                       # Table walker requests started/completed, data/inst (Count)
system.cpu.mmu.stage2_dtb_walker.requestOrigin_Requested::Inst            0                       # Table walker requests started/completed, data/inst (Count)
system.cpu.mmu.stage2_dtb_walker.requestOrigin_Requested::total            0                       # Table walker requests started/completed, data/inst (Count)
system.cpu.mmu.stage2_dtb_walker.requestOrigin_Completed::Data            0                       # Table walker requests started/completed, data/inst (Count)
system.cpu.mmu.stage2_dtb_walker.requestOrigin_Completed::Inst            0                       # Table walker requests started/completed, data/inst (Count)
system.cpu.mmu.stage2_dtb_walker.requestOrigin_Completed::total            0                       # Table walker requests started/completed, data/inst (Count)
system.cpu.mmu.stage2_dtb_walker.requestOrigin::total            0                       # Table walker requests started/completed, data/inst (Count)
system.cpu.mmu.stage2_dtb_walker.power_state.pwrStateResidencyTicks::UNDEFINED 28463288548500                       # Cumulative time (in ticks) in various power states (Tick)
system.cpu.mmu.stage2_itb.instHits                  0                       # Inst hits (Count)
system.cpu.mmu.stage2_itb.instMisses                0                       # Inst misses (Count)
system.cpu.mmu.stage2_itb.inserts                   0                       # Number of times an entry is inserted into the TLB (Count)
system.cpu.mmu.stage2_itb.flushTlb                  1                       # Number of times a TLB invalidation was requested (Count)
system.cpu.mmu.stage2_itb.flushedEntries            0                       # Number of entries that have been flushed from TLB (Count)
system.cpu.mmu.stage2_itb.instAccesses              0                       # Inst accesses (Count)
system.cpu.mmu.stage2_itb.hits                      0                       # Total TLB (inst and data) hits (Count)
system.cpu.mmu.stage2_itb.misses                    0                       # Total TLB (inst and data) misses (Count)
system.cpu.mmu.stage2_itb.accesses                  0                       # Total TLB (inst and data) accesses (Count)
system.cpu.mmu.stage2_itb_walker.walks              0                       # Table walker walks requested (Count)
system.cpu.mmu.stage2_itb_walker.requestOrigin_Requested::Data            0                       # Table walker requests started/completed, data/inst (Count)
system.cpu.mmu.stage2_itb_walker.requestOrigin_Requested::Inst            0                       # Table walker requests started/completed, data/inst (Count)
system.cpu.mmu.stage2_itb_walker.requestOrigin_Requested::total            0                       # Table walker requests started/completed, data/inst (Count)
system.cpu.mmu.stage2_itb_walker.requestOrigin_Completed::Data            0                       # Table walker requests started/completed, data/inst (Count)
system.cpu.mmu.stage2_itb_walker.requestOrigin_Completed::Inst            0                       # Table walker requests started/completed, data/inst (Count)
system.cpu.mmu.stage2_itb_walker.requestOrigin_Completed::total            0                       # Table walker requests started/completed, data/inst (Count)
system.cpu.mmu.stage2_itb_walker.requestOrigin::total            0                       # Table walker requests started/completed, data/inst (Count)
system.cpu.mmu.stage2_itb_walker.power_state.pwrStateResidencyTicks::UNDEFINED 28463288548500                       # Cumulative time (in ticks) in various power states (Tick)
system.cpu.power_state.numTransitions               1                       # Number of power state transitions (Count)
system.cpu.power_state.pwrStateResidencyTicks::ON 28459762050500                       # Cumulative time (in ticks) in various power states (Tick)
system.cpu.power_state.pwrStateResidencyTicks::OFF   3526498000                       # Cumulative time (in ticks) in various power states (Tick)
system.cpu.thread_0.numInsts                        0                       # Number of Instructions committed (Count)
system.cpu.thread_0.numOps                          0                       # Number of Ops committed (Count)
system.cpu.thread_0.numMemRefs                      0                       # Number of Memory References (Count)
system.cpu.workload.numSyscalls                     0                       # Number of system calls (Count)
system.cpu_clk_domain.clock                       500                       # Clock period in ticks (Tick)
system.cpu_voltage_domain.voltage                   1                       # Voltage in Volts (Volt)
system.l2.demandHits::switch_cpus.data           2639                       # number of demand (read+write) hits (Count)
system.l2.demandHits::total                      2639                       # number of demand (read+write) hits (Count)
system.l2.overallHits::switch_cpus.data          2639                       # number of overall hits (Count)
system.l2.overallHits::total                     2639                       # number of overall hits (Count)
system.l2.demandMisses::cpu.inst                    2                       # number of demand (read+write) misses (Count)
system.l2.demandMisses::cpu.data                    2                       # number of demand (read+write) misses (Count)
system.l2.demandMisses::switch_cpus.inst          425                       # number of demand (read+write) misses (Count)
system.l2.demandMisses::switch_cpus.data         2255                       # number of demand (read+write) misses (Count)
system.l2.demandMisses::total                    2684                       # number of demand (read+write) misses (Count)
system.l2.overallMisses::cpu.inst                   2                       # number of overall misses (Count)
system.l2.overallMisses::cpu.data                   2                       # number of overall misses (Count)
system.l2.overallMisses::switch_cpus.inst          425                       # number of overall misses (Count)
system.l2.overallMisses::switch_cpus.data         2255                       # number of overall misses (Count)
system.l2.overallMisses::total                   2684                       # number of overall misses (Count)
system.l2.demandMissLatency::switch_cpus.inst     33706500                       # number of demand (read+write) miss ticks (Tick)
system.l2.demandMissLatency::switch_cpus.data    191729500                       # number of demand (read+write) miss ticks (Tick)
system.l2.demandMissLatency::total          225436000                       # number of demand (read+write) miss ticks (Tick)
system.l2.overallMissLatency::switch_cpus.inst     33706500                       # number of overall miss ticks (Tick)
system.l2.overallMissLatency::switch_cpus.data    191729500                       # number of overall miss ticks (Tick)
system.l2.overallMissLatency::total         225436000                       # number of overall miss ticks (Tick)
system.l2.demandAccesses::cpu.inst                  2                       # number of demand (read+write) accesses (Count)
system.l2.demandAccesses::cpu.data                  2                       # number of demand (read+write) accesses (Count)
system.l2.demandAccesses::switch_cpus.inst          425                       # number of demand (read+write) accesses (Count)
system.l2.demandAccesses::switch_cpus.data         4894                       # number of demand (read+write) accesses (Count)
system.l2.demandAccesses::total                  5323                       # number of demand (read+write) accesses (Count)
system.l2.overallAccesses::cpu.inst                 2                       # number of overall (read+write) accesses (Count)
system.l2.overallAccesses::cpu.data                 2                       # number of overall (read+write) accesses (Count)
system.l2.overallAccesses::switch_cpus.inst          425                       # number of overall (read+write) accesses (Count)
system.l2.overallAccesses::switch_cpus.data         4894                       # number of overall (read+write) accesses (Count)
system.l2.overallAccesses::total                 5323                       # number of overall (read+write) accesses (Count)
system.l2.demandMissRate::cpu.inst                  1                       # miss rate for demand accesses (Ratio)
system.l2.demandMissRate::cpu.data                  1                       # miss rate for demand accesses (Ratio)
system.l2.demandMissRate::switch_cpus.inst            1                       # miss rate for demand accesses (Ratio)
system.l2.demandMissRate::switch_cpus.data     0.460768                       # miss rate for demand accesses (Ratio)
system.l2.demandMissRate::total              0.504227                       # miss rate for demand accesses (Ratio)
system.l2.overallMissRate::cpu.inst                 1                       # miss rate for overall accesses (Ratio)
system.l2.overallMissRate::cpu.data                 1                       # miss rate for overall accesses (Ratio)
system.l2.overallMissRate::switch_cpus.inst            1                       # miss rate for overall accesses (Ratio)
system.l2.overallMissRate::switch_cpus.data     0.460768                       # miss rate for overall accesses (Ratio)
system.l2.overallMissRate::total             0.504227                       # miss rate for overall accesses (Ratio)
system.l2.demandAvgMissLatency::switch_cpus.inst 79309.411765                       # average overall miss latency in ticks ((Tick/Count))
system.l2.demandAvgMissLatency::switch_cpus.data 85024.168514                       # average overall miss latency in ticks ((Tick/Count))
system.l2.demandAvgMissLatency::total    83992.548435                       # average overall miss latency in ticks ((Tick/Count))
system.l2.overallAvgMissLatency::switch_cpus.inst 79309.411765                       # average overall miss latency ((Tick/Count))
system.l2.overallAvgMissLatency::switch_cpus.data 85024.168514                       # average overall miss latency ((Tick/Count))
system.l2.overallAvgMissLatency::total   83992.548435                       # average overall miss latency ((Tick/Count))
system.l2.blockedCycles::no_mshrs                   0                       # number of cycles access was blocked (Cycle)
system.l2.blockedCycles::no_targets                 0                       # number of cycles access was blocked (Cycle)
system.l2.blockedCauses::no_mshrs                   0                       # number of times access was blocked (Count)
system.l2.blockedCauses::no_targets                 0                       # number of times access was blocked (Count)
system.l2.avgBlocked::no_mshrs                    nan                       # average number of cycles each access was blocked ((Cycle/Count))
system.l2.avgBlocked::no_targets                  nan                       # average number of cycles each access was blocked ((Cycle/Count))
system.l2.demandMshrMisses::switch_cpus.inst          425                       # number of demand (read+write) MSHR misses (Count)
system.l2.demandMshrMisses::switch_cpus.data         2255                       # number of demand (read+write) MSHR misses (Count)
system.l2.demandMshrMisses::total                2680                       # number of demand (read+write) MSHR misses (Count)
system.l2.overallMshrMisses::switch_cpus.inst          425                       # number of overall MSHR misses (Count)
system.l2.overallMshrMisses::switch_cpus.data         2255                       # number of overall MSHR misses (Count)
system.l2.overallMshrMisses::total               2680                       # number of overall MSHR misses (Count)
system.l2.demandMshrMissLatency::switch_cpus.inst     29456500                       # number of demand (read+write) MSHR miss ticks (Tick)
system.l2.demandMshrMissLatency::switch_cpus.data    169179500                       # number of demand (read+write) MSHR miss ticks (Tick)
system.l2.demandMshrMissLatency::total      198636000                       # number of demand (read+write) MSHR miss ticks (Tick)
system.l2.overallMshrMissLatency::switch_cpus.inst     29456500                       # number of overall MSHR miss ticks (Tick)
system.l2.overallMshrMissLatency::switch_cpus.data    169179500                       # number of overall MSHR miss ticks (Tick)
system.l2.overallMshrMissLatency::total     198636000                       # number of overall MSHR miss ticks (Tick)
system.l2.demandMshrMissRate::switch_cpus.inst            1                       # mshr miss ratio for demand accesses (Ratio)
system.l2.demandMshrMissRate::switch_cpus.data     0.460768                       # mshr miss ratio for demand accesses (Ratio)
system.l2.demandMshrMissRate::total          0.503475                       # mshr miss ratio for demand accesses (Ratio)
system.l2.overallMshrMissRate::switch_cpus.inst            1                       # mshr miss ratio for overall accesses (Ratio)
system.l2.overallMshrMissRate::switch_cpus.data     0.460768                       # mshr miss ratio for overall accesses (Ratio)
system.l2.overallMshrMissRate::total         0.503475                       # mshr miss ratio for overall accesses (Ratio)
system.l2.demandAvgMshrMissLatency::switch_cpus.inst 69309.411765                       # average overall mshr miss latency ((Tick/Count))
system.l2.demandAvgMshrMissLatency::switch_cpus.data 75024.168514                       # average overall mshr miss latency ((Tick/Count))
system.l2.demandAvgMshrMissLatency::total 74117.910448                       # average overall mshr miss latency ((Tick/Count))
system.l2.overallAvgMshrMissLatency::switch_cpus.inst 69309.411765                       # average overall mshr miss latency ((Tick/Count))
system.l2.overallAvgMshrMissLatency::switch_cpus.data 75024.168514                       # average overall mshr miss latency ((Tick/Count))
system.l2.overallAvgMshrMissLatency::total 74117.910448                       # average overall mshr miss latency ((Tick/Count))
system.l2.replacements                              0                       # number of replacements (Count)
system.l2.InvalidateReq.hits::switch_cpus.data            4                       # number of InvalidateReq hits (Count)
system.l2.InvalidateReq.hits::total                 4                       # number of InvalidateReq hits (Count)
system.l2.InvalidateReq.misses::switch_cpus.data            3                       # number of InvalidateReq misses (Count)
system.l2.InvalidateReq.misses::total               3                       # number of InvalidateReq misses (Count)
system.l2.InvalidateReq.accesses::switch_cpus.data            7                       # number of InvalidateReq accesses(hits+misses) (Count)
system.l2.InvalidateReq.accesses::total             7                       # number of InvalidateReq accesses(hits+misses) (Count)
system.l2.InvalidateReq.missRate::switch_cpus.data     0.428571                       # miss rate for InvalidateReq accesses (Ratio)
system.l2.InvalidateReq.missRate::total      0.428571                       # miss rate for InvalidateReq accesses (Ratio)
system.l2.InvalidateReq.mshrMisses::switch_cpus.data            3                       # number of InvalidateReq MSHR misses (Count)
system.l2.InvalidateReq.mshrMisses::total            3                       # number of InvalidateReq MSHR misses (Count)
system.l2.InvalidateReq.mshrMissLatency::switch_cpus.data        56500                       # number of InvalidateReq MSHR miss ticks (Tick)
system.l2.InvalidateReq.mshrMissLatency::total        56500                       # number of InvalidateReq MSHR miss ticks (Tick)
system.l2.InvalidateReq.mshrMissRate::switch_cpus.data     0.428571                       # mshr miss rate for InvalidateReq accesses (Ratio)
system.l2.InvalidateReq.mshrMissRate::total     0.428571                       # mshr miss rate for InvalidateReq accesses (Ratio)
system.l2.InvalidateReq.avgMshrMissLatency::switch_cpus.data 18833.333333                       # average InvalidateReq mshr miss latency ((Tick/Count))
system.l2.InvalidateReq.avgMshrMissLatency::total 18833.333333                       # average InvalidateReq mshr miss latency ((Tick/Count))
system.l2.ReadCleanReq.misses::cpu.inst             2                       # number of ReadCleanReq misses (Count)
system.l2.ReadCleanReq.misses::switch_cpus.inst          425                       # number of ReadCleanReq misses (Count)
system.l2.ReadCleanReq.misses::total              427                       # number of ReadCleanReq misses (Count)
system.l2.ReadCleanReq.missLatency::switch_cpus.inst     33706500                       # number of ReadCleanReq miss ticks (Tick)
system.l2.ReadCleanReq.missLatency::total     33706500                       # number of ReadCleanReq miss ticks (Tick)
system.l2.ReadCleanReq.accesses::cpu.inst            2                       # number of ReadCleanReq accesses(hits+misses) (Count)
system.l2.ReadCleanReq.accesses::switch_cpus.inst          425                       # number of ReadCleanReq accesses(hits+misses) (Count)
system.l2.ReadCleanReq.accesses::total            427                       # number of ReadCleanReq accesses(hits+misses) (Count)
system.l2.ReadCleanReq.missRate::cpu.inst            1                       # miss rate for ReadCleanReq accesses (Ratio)
system.l2.ReadCleanReq.missRate::switch_cpus.inst            1                       # miss rate for ReadCleanReq accesses (Ratio)
system.l2.ReadCleanReq.missRate::total              1                       # miss rate for ReadCleanReq accesses (Ratio)
system.l2.ReadCleanReq.avgMissLatency::switch_cpus.inst 79309.411765                       # average ReadCleanReq miss latency ((Tick/Count))
system.l2.ReadCleanReq.avgMissLatency::total 78937.939110                       # average ReadCleanReq miss latency ((Tick/Count))
system.l2.ReadCleanReq.mshrMisses::switch_cpus.inst          425                       # number of ReadCleanReq MSHR misses (Count)
system.l2.ReadCleanReq.mshrMisses::total          425                       # number of ReadCleanReq MSHR misses (Count)
system.l2.ReadCleanReq.mshrMissLatency::switch_cpus.inst     29456500                       # number of ReadCleanReq MSHR miss ticks (Tick)
system.l2.ReadCleanReq.mshrMissLatency::total     29456500                       # number of ReadCleanReq MSHR miss ticks (Tick)
system.l2.ReadCleanReq.mshrMissRate::switch_cpus.inst            1                       # mshr miss rate for ReadCleanReq accesses (Ratio)
system.l2.ReadCleanReq.mshrMissRate::total     0.995316                       # mshr miss rate for ReadCleanReq accesses (Ratio)
system.l2.ReadCleanReq.avgMshrMissLatency::switch_cpus.inst 69309.411765                       # average ReadCleanReq mshr miss latency ((Tick/Count))
system.l2.ReadCleanReq.avgMshrMissLatency::total 69309.411765                       # average ReadCleanReq mshr miss latency ((Tick/Count))
system.l2.ReadExReq.hits::switch_cpus.data          205                       # number of ReadExReq hits (Count)
system.l2.ReadExReq.hits::total                   205                       # number of ReadExReq hits (Count)
system.l2.ReadExReq.misses::switch_cpus.data          219                       # number of ReadExReq misses (Count)
system.l2.ReadExReq.misses::total                 219                       # number of ReadExReq misses (Count)
system.l2.ReadExReq.missLatency::switch_cpus.data     17291000                       # number of ReadExReq miss ticks (Tick)
system.l2.ReadExReq.missLatency::total       17291000                       # number of ReadExReq miss ticks (Tick)
system.l2.ReadExReq.accesses::switch_cpus.data          424                       # number of ReadExReq accesses(hits+misses) (Count)
system.l2.ReadExReq.accesses::total               424                       # number of ReadExReq accesses(hits+misses) (Count)
system.l2.ReadExReq.missRate::switch_cpus.data     0.516509                       # miss rate for ReadExReq accesses (Ratio)
system.l2.ReadExReq.missRate::total          0.516509                       # miss rate for ReadExReq accesses (Ratio)
system.l2.ReadExReq.avgMissLatency::switch_cpus.data 78954.337900                       # average ReadExReq miss latency ((Tick/Count))
system.l2.ReadExReq.avgMissLatency::total 78954.337900                       # average ReadExReq miss latency ((Tick/Count))
system.l2.ReadExReq.mshrMisses::switch_cpus.data          219                       # number of ReadExReq MSHR misses (Count)
system.l2.ReadExReq.mshrMisses::total             219                       # number of ReadExReq MSHR misses (Count)
system.l2.ReadExReq.mshrMissLatency::switch_cpus.data     15101000                       # number of ReadExReq MSHR miss ticks (Tick)
system.l2.ReadExReq.mshrMissLatency::total     15101000                       # number of ReadExReq MSHR miss ticks (Tick)
system.l2.ReadExReq.mshrMissRate::switch_cpus.data     0.516509                       # mshr miss rate for ReadExReq accesses (Ratio)
system.l2.ReadExReq.mshrMissRate::total      0.516509                       # mshr miss rate for ReadExReq accesses (Ratio)
system.l2.ReadExReq.avgMshrMissLatency::switch_cpus.data 68954.337900                       # average ReadExReq mshr miss latency ((Tick/Count))
system.l2.ReadExReq.avgMshrMissLatency::total 68954.337900                       # average ReadExReq mshr miss latency ((Tick/Count))
system.l2.ReadSharedReq.hits::switch_cpus.data         2434                       # number of ReadSharedReq hits (Count)
system.l2.ReadSharedReq.hits::total              2434                       # number of ReadSharedReq hits (Count)
system.l2.ReadSharedReq.misses::cpu.data            2                       # number of ReadSharedReq misses (Count)
system.l2.ReadSharedReq.misses::switch_cpus.data         2036                       # number of ReadSharedReq misses (Count)
system.l2.ReadSharedReq.misses::total            2038                       # number of ReadSharedReq misses (Count)
system.l2.ReadSharedReq.missLatency::switch_cpus.data    174438500                       # number of ReadSharedReq miss ticks (Tick)
system.l2.ReadSharedReq.missLatency::total    174438500                       # number of ReadSharedReq miss ticks (Tick)
system.l2.ReadSharedReq.accesses::cpu.data            2                       # number of ReadSharedReq accesses(hits+misses) (Count)
system.l2.ReadSharedReq.accesses::switch_cpus.data         4470                       # number of ReadSharedReq accesses(hits+misses) (Count)
system.l2.ReadSharedReq.accesses::total          4472                       # number of ReadSharedReq accesses(hits+misses) (Count)
system.l2.ReadSharedReq.missRate::cpu.data            1                       # miss rate for ReadSharedReq accesses (Ratio)
system.l2.ReadSharedReq.missRate::switch_cpus.data     0.455481                       # miss rate for ReadSharedReq accesses (Ratio)
system.l2.ReadSharedReq.missRate::total      0.455725                       # miss rate for ReadSharedReq accesses (Ratio)
system.l2.ReadSharedReq.avgMissLatency::switch_cpus.data 85677.062868                       # average ReadSharedReq miss latency ((Tick/Count))
system.l2.ReadSharedReq.avgMissLatency::total 85592.983317                       # average ReadSharedReq miss latency ((Tick/Count))
system.l2.ReadSharedReq.mshrMisses::switch_cpus.data         2036                       # number of ReadSharedReq MSHR misses (Count)
system.l2.ReadSharedReq.mshrMisses::total         2036                       # number of ReadSharedReq MSHR misses (Count)
system.l2.ReadSharedReq.mshrMissLatency::switch_cpus.data    154078500                       # number of ReadSharedReq MSHR miss ticks (Tick)
system.l2.ReadSharedReq.mshrMissLatency::total    154078500                       # number of ReadSharedReq MSHR miss ticks (Tick)
[...]
system.switch_cpus.mmu.dtb_walker.requestOrigin_Completed::Data            0                       # Table walker requests started/completed, data/inst (Count)
system.switch_cpus.mmu.dtb_walker.requestOrigin_Completed::Inst            0                       # Table walker requests started/completed, data/inst (Count)
system.switch_cpus.mmu.dtb_walker.requestOrigin_Completed::total            0                       # Table walker requests started/completed, data/inst (Count)
system.switch_cpus.mmu.dtb_walker.requestOrigin::total            0                       # Table walker requests started/completed, data/inst (Count)
system.switch_cpus.mmu.dtb_walker.power_state.pwrStateResidencyTicks::UNDEFINED  33542461500                       # Cumulative time (in ticks) in various power states (Tick)
system.switch_cpus.mmu.itb.instHits                 0                       # Inst hits (Count)
system.switch_cpus.mmu.itb.instMisses               0                       # Inst misses (Count)
system.switch_cpus.mmu.itb.inserts                  0                       # Number of times an entry is inserted into the TLB (Count)
system.switch_cpus.mmu.itb.flushTlb                 0                       # Number of times a TLB invalidation was requested (Count)
system.switch_cpus.mmu.itb.flushedEntries            0                       # Number of entries that have been flushed from TLB (Count)
system.switch_cpus.mmu.itb.instAccesses             0                       # Inst accesses (Count)
system.switch_cpus.mmu.itb.hits                     0                       # Total TLB (inst and data) hits (Count)
system.switch_cpus.mmu.itb.misses                   0                       # Total TLB (inst and data) misses (Count)
system.switch_cpus.mmu.itb.accesses                 0                       # Total TLB (inst and data) accesses (Count)
system.switch_cpus.mmu.itb_walker.walks             0                       # Table walker walks requested (Count)
system.switch_cpus.mmu.itb_walker.requestOrigin_Requested::Data            0                       # Table walker requests started/completed, data/inst (Count)
system.switch_cpus.mmu.itb_walker.requestOrigin_Requested::Inst            0                       # Table walker requests started/completed, data/inst (Count)
system.switch_cpus.mmu.itb_walker.requestOrigin_Requested::total            0                       # Table walker requests started/completed, data/inst (Count)
system.switch_cpus.mmu.itb_walker.requestOrigin_Completed::Data            0                       # Table walker requests started/completed, data/inst (Count)
system.switch_cpus.mmu.itb_walker.requestOrigin_Completed::Inst            0                       # Table walker requests started/completed, data/inst (Count)
system.switch_cpus.mmu.itb_walker.requestOrigin_Completed::total            0                       # Table walker requests started/completed, data/inst (Count)
system.switch_cpus.mmu.itb_walker.requestOrigin::total            0                       # Table walker requests started/completed, data/inst (Count)
system.switch_cpus.mmu.itb_walker.power_state.pwrStateResidencyTicks::UNDEFINED  33542461500                       # Cumulative time (in ticks) in various power states (Tick)
system.switch_cpus.mmu.l2_shared.instHits            0                       # Inst hits (Count)
system.switch_cpus.mmu.l2_shared.instMisses            0                       # Inst misses (Count)
system.switch_cpus.mmu.l2_shared.inserts            0                       # Number of times an entry is inserted into the TLB (Count)
system.switch_cpus.mmu.l2_shared.flushTlb            0                       # Number of times a TLB invalidation was requested (Count)
system.switch_cpus.mmu.l2_shared.flushedEntries            0                       # Number of entries that have been flushed from TLB (Count)
system.switch_cpus.mmu.l2_shared.instAccesses            0                       # Inst accesses (Count)
system.switch_cpus.mmu.l2_shared.hits               0                       # Total TLB (inst and data) hits (Count)
system.switch_cpus.mmu.l2_shared.misses             0                       # Total TLB (inst and data) misses (Count)
system.switch_cpus.mmu.l2_shared.accesses            0                       # Total TLB (inst and data) accesses (Count)
system.switch_cpus.mmu.stage2_dtb.readHits            0                       # Read hits (Count)
system.switch_cpus.mmu.stage2_dtb.readMisses            0                       # Read misses (Count)
system.switch_cpus.mmu.stage2_dtb.writeHits            0                       # Write hits (Count)
system.switch_cpus.mmu.stage2_dtb.writeMisses            0                       # Write misses (Count)
system.switch_cpus.mmu.stage2_dtb.inserts            0                       # Number of times an entry is inserted into the TLB (Count)
system.switch_cpus.mmu.stage2_dtb.flushTlb            0                       # Number of times a TLB invalidation was requested (Count)
system.switch_cpus.mmu.stage2_dtb.flushedEntries            0                       # Number of entries that have been flushed from TLB (Count)
system.switch_cpus.mmu.stage2_dtb.readAccesses            0                       # Read accesses (Count)
system.switch_cpus.mmu.stage2_dtb.writeAccesses            0                       # Write accesses (Count)
system.switch_cpus.mmu.stage2_dtb.hits              0                       # Total TLB (inst and data) hits (Count)
system.switch_cpus.mmu.stage2_dtb.misses            0                       # Total TLB (inst and data) misses (Count)
system.switch_cpus.mmu.stage2_dtb.accesses            0                       # Total TLB (inst and data) accesses (Count)
system.switch_cpus.mmu.stage2_dtb_walker.walks            0                       # Table walker walks requested (Count)
system.switch_cpus.mmu.stage2_dtb_walker.requestOrigin_Requested::Data            0                       # Table walker requests started/completed, data/inst (Count)
system.switch_cpus.mmu.stage2_dtb_walker.requestOrigin_Requested::Inst            0                       # Table walker requests started/completed, data/inst (Count)
system.switch_cpus.mmu.stage2_dtb_walker.requestOrigin_Requested::total            0                       # Table walker requests started/completed, data/inst (Count)
system.switch_cpus.mmu.stage2_dtb_walker.requestOrigin_Completed::Data            0                       # Table walker requests started/completed, data/inst (Count)
system.switch_cpus.mmu.stage2_dtb_walker.requestOrigin_Completed::Inst            0                       # Table walker requests started/completed, data/inst (Count)
system.switch_cpus.mmu.stage2_dtb_walker.requestOrigin_Completed::total            0                       # Table walker requests started/completed, data/inst (Count)
system.switch_cpus.mmu.stage2_dtb_walker.requestOrigin::total            0                       # Table walker requests started/completed, data/inst (Count)
system.switch_cpus.mmu.stage2_dtb_walker.power_state.pwrStateResidencyTicks::UNDEFINED  33542461500                       # Cumulative time (in ticks) in various power states (Tick)
system.switch_cpus.mmu.stage2_itb.instHits            0                       # Inst hits (Count)
system.switch_cpus.mmu.stage2_itb.instMisses            0                       # Inst misses (Count)
system.switch_cpus.mmu.stage2_itb.inserts            0                       # Number of times an entry is inserted into the TLB (Count)
system.switch_cpus.mmu.stage2_itb.flushTlb            0                       # Number of times a TLB invalidation was requested (Count)
system.switch_cpus.mmu.stage2_itb.flushedEntries            0                       # Number of entries that have been flushed from TLB (Count)
system.switch_cpus.mmu.stage2_itb.instAccesses            0                       # Inst accesses (Count)
system.switch_cpus.mmu.stage2_itb.hits              0                       # Total TLB (inst and data) hits (Count)
system.switch_cpus.mmu.stage2_itb.misses            0                       # Total TLB (inst and data) misses (Count)
system.switch_cpus.mmu.stage2_itb.accesses            0                       # Total TLB (inst and data) accesses (Count)
system.switch_cpus.mmu.stage2_itb_walker.walks            0                       # Table walker walks requested (Count)
system.switch_cpus.mmu.stage2_itb_walker.requestOrigin_Requested::Data            0                       # Table walker requests started/completed, data/inst (Count)
system.switch_cpus.mmu.stage2_itb_walker.requestOrigin_Requested::Inst            0                       # Table walker requests started/completed, data/inst (Count)
system.switch_cpus.mmu.stage2_itb_walker.requestOrigin_Requested::total            0                       # Table walker requests started/completed, data/inst (Count)
system.switch_cpus.mmu.stage2_itb_walker.requestOrigin_Completed::Data            0                       # Table walker requests started/completed, data/inst (Count)
system.switch_cpus.mmu.stage2_itb_walker.requestOrigin_Completed::Inst            0                       # Table walker requests started/completed, data/inst (Count)
system.switch_cpus.mmu.stage2_itb_walker.requestOrigin_Completed::total            0                       # Table walker requests started/completed, data/inst (Count)
system.switch_cpus.mmu.stage2_itb_walker.requestOrigin::total            0                       # Table walker requests started/completed, data/inst (Count)
system.switch_cpus.mmu.stage2_itb_walker.power_state.pwrStateResidencyTicks::UNDEFINED  33542461500                       # Cumulative time (in ticks) in various power states (Tick)
system.switch_cpus.power_state.pwrStateResidencyTicks::OFF  33542461500                       # Cumulative time (in ticks) in various power states (Tick)
system.switch_cpus.rename.squashCycles        2159457                       # Number of cycles rename is squashing (Cycle)
system.switch_cpus.rename.idleCycles         23768868                       # Number of cycles rename is idle (Cycle)
system.switch_cpus.rename.blockCycles         8604007                       # Number of cycles rename is blocking (Cycle)
system.switch_cpus.rename.serializeStallCycles       635340                       # count of cycles rename stalled for serializing inst (Cycle)
system.switch_cpus.rename.runCycles          28684944                       # Number of cycles rename is running (Cycle)
system.switch_cpus.rename.unblockCycles       3231145                       # Number of cycles rename is unblocking (Cycle)
system.switch_cpus.rename.renamedInsts      197930629                       # Number of instructions processed by rename (Count)
system.switch_cpus.rename.ROBFullEvents           652                       # Number of times rename has blocked due to ROB full (Count)
system.switch_cpus.rename.IQFullEvents        2988965                       # Number of times rename has blocked due to IQ full (Count)
system.switch_cpus.rename.LQFullEvents           2451                       # Number of times rename has blocked due to LQ full (Count)
system.switch_cpus.rename.SQFullEvents          58899                       # Number of times rename has blocked due to SQ full (Count)
system.switch_cpus.rename.renamedOperands    223470139                       # Number of destination operands rename has renamed (Count)
system.switch_cpus.rename.lookups           349423447                       # Number of register rename lookups that rename has made (Count)
system.switch_cpus.rename.intLookups        238962355                       # Number of integer rename lookups (Count)
system.switch_cpus.rename.vecLookups          9121937                       # Number of vector rename lookups (Count)
system.switch_cpus.rename.vecPredLookups         1498                       # Number of vector predicate rename lookups (Count)
system.switch_cpus.rename.committedMaps     121836761                       # Number of HB maps that are committed (Count)
system.switch_cpus.rename.undoneMaps        101633470                       # Number of HB maps that are undone due to squashing (Count)
system.switch_cpus.rename.serializing           18498                       # count of serializing insts renamed (Count)
system.switch_cpus.rename.tempSerializing            0                       # count of temporary serializing insts renamed (Count)
system.switch_cpus.rename.skidInsts           7260153                       # count of insts added to the skid buffer (Count)
system.switch_cpus.rob.reads                239393499                       # The number of ROB reads (Count)
system.switch_cpus.rob.writes               373256670                       # The number of ROB writes (Count)
system.switch_cpus.rob.squashedLoads         20898744                       # The number of load instructions squashed (Count)
system.switch_cpus.rob.squashedRMWLoads             0                       # The number of read-modify-write load instructions squashed (Count)
system.switch_cpus.rob.squashedRMWALoads            0                       # The number of atomic read-modify-write load instructions squashed (Count)
system.switch_cpus.rob.squashedStores         6031954                       # The number of store instructions squashed (Count)
system.switch_cpus.rob.squashedRMWStores            0                       # The number of read-modify-write store instructions squashed (Count)
system.switch_cpus.rob.squashedRMWAStores            0                       # The number of atomic read-modify-write store instructions squashed (Count)
system.switch_cpus.thread_0.numInsts         99999998                       # Number of Instructions committed (Count)
system.switch_cpus.thread_0.numOps          108711355                       # Number of Ops committed (Count)
system.switch_cpus.thread_0.numMemRefs              0                       # Number of Memory References (Count)
system.tol2bus.transDist::ReadResp              29410                       # Transaction distribution (Count)
system.tol2bus.transDist::WritebackDirty         6171                       # Transaction distribution (Count)
system.tol2bus.transDist::CleanEvict            24812                       # Transaction distribution (Count)
system.tol2bus.transDist::UpgradeReq               11                       # Transaction distribution (Count)
system.tol2bus.transDist::UpgradeResp              11                       # Transaction distribution (Count)
system.tol2bus.transDist::ReadExReq              2537                       # Transaction distribution (Count)
system.tol2bus.transDist::ReadExResp             2537                       # Transaction distribution (Count)
system.tol2bus.transDist::ReadCleanReq             59                       # Transaction distribution (Count)
system.tol2bus.transDist::ReadSharedReq         29351                       # Transaction distribution (Count)
system.tol2bus.transDist::InvalidateReq           151                       # Transaction distribution (Count)
system.tol2bus.transDist::InvalidateResp          151                       # Transaction distribution (Count)
system.tol2bus.pktCount_system.cpu.icache.mem_side_port::system.l2.cpu_side_port          103                       # Packet count per connected requestor and responder (Count)
system.tol2bus.pktCount_system.cpu.dcache.mem_side_port::system.l2.cpu_side_port        95083                       # Packet count per connected requestor and responder (Count)
system.tol2bus.pktCount::total                  95186                       # Packet count per connected requestor and responder (Count)
system.tol2bus.pktSize_system.cpu.icache.mem_side_port::system.l2.cpu_side_port         2816                       # Cumulative packet size per connected requestor and responder (Byte)
system.tol2bus.pktSize_system.cpu.dcache.mem_side_port::system.l2.cpu_side_port      2435776                       # Cumulative packet size per connected requestor and responder (Byte)
system.tol2bus.pktSize::total                 2438592                       # Cumulative packet size per connected requestor and responder (Byte)
system.tol2bus.snoops                              15                       # Total snoops (Count)
system.tol2bus.snoopTraffic                       960                       # Total snoop traffic (Byte)
system.tol2bus.snoopFanout::samples             32109                       # Request fanout histogram (Count)
system.tol2bus.snoopFanout::mean             0.000934                       # Request fanout histogram (Count)
system.tol2bus.snoopFanout::stdev            0.030553                       # Request fanout histogram (Count)
system.tol2bus.snoopFanout::underflows              0      0.00%      0.00% # Request fanout histogram (Count)
system.tol2bus.snoopFanout::0                   32079     99.91%     99.91% # Request fanout histogram (Count)
system.tol2bus.snoopFanout::1                      30      0.09%    100.00% # Request fanout histogram (Count)
system.tol2bus.snoopFanout::2                       0      0.00%    100.00% # Request fanout histogram (Count)
system.tol2bus.snoopFanout::overflows               0      0.00%    100.00% # Request fanout histogram (Count)
system.tol2bus.snoopFanout::min_value               0                       # Request fanout histogram (Count)
system.tol2bus.snoopFanout::max_value               1                       # Request fanout histogram (Count)
system.tol2bus.snoopFanout::total               32109                       # Request fanout histogram (Count)
system.tol2bus.power_state.pwrStateResidencyTicks::UNDEFINED  33542461500                       # Cumulative time (in ticks) in various power states (Tick)
system.tol2bus.reqLayer0.occupancy           37717000                       # Layer occupancy (ticks) (Tick)
system.tol2bus.reqLayer0.utilization              0.0                       # Layer utilization (Ratio)
system.tol2bus.respLayer0.occupancy             88500                       # Layer occupancy (ticks) (Tick)
system.tol2bus.respLayer0.utilization             0.0                       # Layer utilization (Ratio)
system.tol2bus.respLayer1.occupancy          47913000                       # Layer occupancy (ticks) (Tick)
system.tol2bus.respLayer1.utilization             0.0                       # Layer utilization (Ratio)
system.tol2bus.snoop_filter.totRequests         63092                       # Total number of requests made to the snoop filter. (Count)
system.tol2bus.snoop_filter.hitSingleRequests        30984                       # Number of requests hitting in the snoop filter with a single holder of the requested data. (Count)
system.tol2bus.snoop_filter.hitMultiRequests           29                       # Number of requests hitting in the snoop filter with multiple (>1) holders of the requested data. (Count)
system.tol2bus.snoop_filter.totSnoops               0                       # Total number of snoops made to the snoop filter. (Count)
system.tol2bus.snoop_filter.hitSingleSnoops            0                       # Number of snoops hitting in the snoop filter with a single holder of the requested data. (Count)
system.tol2bus.snoop_filter.hitMultiSnoops            0                       # Number of snoops hitting in the snoop filter with multiple (>1) holders of the requested data. (Count)
system.voltage_domain.voltage                       1                       # Voltage in Volts (Volt)
system.workload.inst.arm                            0                       # number of arm instructions executed (Count)
system.workload.inst.quiesce                        0                       # number of quiesce instructions executed (Count)

---------- End Simulation Statistics   ----------
