
---------- Begin Simulation Statistics ----------
simSeconds                                   0.002613                       # Number of seconds simulated (Second)
simTicks                                   2612653000                       # Number of ticks simulated (Tick)
finalTick                                432268206163000                       # Number of ticks from beginning of simulation (restored from checkpoints and never reset) (Tick)
simFreq                                  1000000000000                       # The number of ticks per simulated second ((Tick/Second))
hostSeconds                                     16.12                       # Real time elapsed on the host (Second)
hostTickRate                                162084690                       # The number of ticks simulated per host second (ticks/s) ((Tick/Second))
hostMemory                                   52649956                       # Number of bytes of host memory used (Byte)
simInsts                                     10000020                       # Number of instructions simulated (Count)
simOps                                       11511663                       # Number of ops (including micro ops) simulated (Count)
hostInstRate                                   620382                       # Simulator instruction rate (inst/s) ((Count/Second))
hostOpRate                                     714162                       # Simulator op (including micro ops) rate (op/s) ((Count/Second))
system.clk_domain.clock                          1000                       # Clock period in ticks (Tick)
system.cpu.numCycles                               20                       # Number of cpu cycles simulated (Cycle)
system.cpu.cpi                               1.000000                       # CPI: cycles per instruction (core level) ((Cycle/Count))
system.cpu.ipc                               1.000000                       # IPC: instructions per cycle (core level) ((Count/Cycle))
system.cpu.numWorkItemsStarted                      0                       # Number of work items this cpu started (Count)
system.cpu.numWorkItemsCompleted                    0                       # Number of work items this cpu completed (Count)
system.cpu.commitStats0.numInsts                   20                       # Number of instructions committed (thread level) (Count)
system.cpu.commitStats0.numOps                     20                       # Number of ops (including micro ops) committed (thread level) (Count)
system.cpu.commitStats0.numInstsNotNOP              0                       # Number of instructions committed excluding NOPs or prefetches (Count)
system.cpu.commitStats0.numOpsNotNOP                0                       # Number of Ops (including micro ops) Simulated (Count)
system.cpu.commitStats0.cpi                  1.000000                       # CPI: cycles per instruction (thread level) ((Cycle/Count))
system.cpu.commitStats0.ipc                  1.000000                       # IPC: instructions per cycle (thread level) ((Count/Cycle))
system.cpu.commitStats0.numMemRefs                  0                       # Number of memory references committed (Count)
system.cpu.commitStats0.numFpInsts                  0                       # Number of float instructions (Count)
system.cpu.commitStats0.numIntInsts                15                       # Number of integer instructions (Count)
system.cpu.commitStats0.numLoadInsts                1                       # Number of load instructions (Count)
system.cpu.commitStats0.numRMWLoadInsts             0                       # Number of read-modify-write load instructions executed (Count)
system.cpu.commitStats0.numRMWALoadInsts            0                       # Number of atomic read-modify-write load instructions executed (Count)
system.cpu.commitStats0.numStoreInsts               0                       # Number of store instructions (Count)
system.cpu.commitStats0.numRMWStoreInsts            0                       # Number of read-modify-write store instructions executed (Count)
system.cpu.commitStats0.numRMWAStoreInsts            0                       # Number of atomic read-modify-write store instructions executed (Count)
system.cpu.commitStats0.numVecInsts                 0                       # Number of vector instructions (Count)
system.cpu.commitStats0.committedInstType::No_OpClass            0      0.00%      0.00% # Class of committed instruction. (Count)
system.cpu.commitStats0.committedInstType::IntAlu           19     95.00%     95.00% # Class of committed instruction. (Count)
system.cpu.commitStats0.committedInstType::IntMult            0      0.00%     95.00% # Class of committed instruction. (Count)
system.cpu.commitStats0.committedInstType::IntDiv            0      0.00%     95.00% # Class of committed instruction. (Count)
system.cpu.commitStats0.committedInstType::FloatAdd            0      0.00%     95.00% # Class of committed instruction. (Count)
system.cpu.commitStats0.committedInstType::FloatCmp            0      0.00%     95.00% # Class of committed instruction. (Count)
system.cpu.commitStats0.committedInstType::FloatCvt            0      0.00%     95.00% # Class of committed instruction. (Count)
system.cpu.commitStats0.committedInstType::FloatMult            0      0.00%     95.00% # Class of committed instruction. (Count)
system.cpu.commitStats0.committedInstType::FloatMultAcc            0      0.00%     95.00% # Class of committed instruction. (Count)
system.cpu.commitStats0.committedInstType::FloatDiv            0      0.00%     95.00% # Class of committed instruction. (Count)
system.cpu.commitStats0.committedInstType::FloatMisc            0      0.00%     95.00% # Class of committed instruction. (Count)
system.cpu.commitStats0.committedInstType::FloatSqrt            0      0.00%     95.00% # Class of committed instruction. (Count)
system.cpu.commitStats0.committedInstType::SimdAdd            0      0.00%     95.00% # Class of committed instruction. (Count)
system.cpu.commitStats0.committedInstType::SimdAddAcc            0      0.00%     95.00% # Class of committed instruction. (Count)
system.cpu.commitStats0.committedInstType::SimdAlu            0      0.00%     95.00% # Class of committed instruction. (Count)
system.cpu.commitStats0.committedInstType::SimdCmp            0      0.00%     95.00% # Class of committed instruction. (Count)
system.cpu.commitStats0.committedInstType::SimdCvt            0      0.00%     95.00% # Class of committed instruction. (Count)
system.cpu.commitStats0.committedInstType::SimdMisc            0      0.00%     95.00% # Class of committed instruction. (Count)
system.cpu.commitStats0.committedInstType::SimdMult            0      0.00%     95.00% # Class of committed instruction. (Count)
system.cpu.commitStats0.committedInstType::SimdMultAcc            0      0.00%     95.00% # Class of committed instruction. (Count)
system.cpu.commitStats0.committedInstType::SimdMatMultAcc            0      0.00%     95.00% # Class of committed instruction. (Count)
system.cpu.commitStats0.committedInstType::SimdShift            0      0.00%     95.00% # Class of committed instruction. (Count)
system.cpu.commitStats0.committedInstType::SimdShiftAcc            0      0.00%     95.00% # Class of committed instruction. (Count)
system.cpu.commitStats0.committedInstType::SimdDiv            0      0.00%     95.00% # Class of committed instruction. (Count)
system.cpu.commitStats0.committedInstType::SimdSqrt            0      0.00%     95.00% # Class of committed instruction. (Count)
system.cpu.commitStats0.committedInstType::SimdFloatAdd            0      0.00%     95.00% # Class of committed instruction. (Count)
system.cpu.commitStats0.committedInstType::SimdFloatAlu            0      0.00%     95.00% # Class of committed instruction. (Count)
system.cpu.commitStats0.committedInstType::SimdFloatCmp            0      0.00%     95.00% # Class of committed instruction. (Count)
system.cpu.commitStats0.committedInstType::SimdFloatCvt            0      0.00%     95.00% # Class of committed instruction. (Count)
system.cpu.commitStats0.committedInstType::SimdFloatDiv            0      0.00%     95.00% # Class of committed instruction. (Count)
system.cpu.commitStats0.committedInstType::SimdFloatMisc            0      0.00%     95.00% # Class of committed instruction. (Count)
system.cpu.commitStats0.committedInstType::SimdFloatMult            0      0.00%     95.00% # Class of committed instruction. (Count)
system.cpu.commitStats0.committedInstType::SimdFloatMultAcc            0      0.00%     95.00% # Class of committed instruction. (Count)
system.cpu.commitStats0.committedInstType::SimdFloatMatMultAcc            0      0.00%     95.00% # Class of committed instruction. (Count)
system.cpu.commitStats0.committedInstType::SimdFloatSqrt            0      0.00%     95.00% # Class of committed instruction. (Count)
system.cpu.commitStats0.committedInstType::SimdReduceAdd            0      0.00%     95.00% # Class of committed instruction. (Count)
system.cpu.commitStats0.committedInstType::SimdReduceAlu            0      0.00%     95.00% # Class of committed instruction. (Count)
system.cpu.commitStats0.committedInstType::SimdReduceCmp            0      0.00%     95.00% # Class of committed instruction. (Count)
system.cpu.commitStats0.committedInstType::SimdFloatReduceAdd            0      0.00%     95.00% # Class of committed instruction. (Count)
system.cpu.commitStats0.committedInstType::SimdFloatReduceCmp            0      0.00%     95.00% # Class of committed instruction. (Count)
system.cpu.commitStats0.committedInstType::SimdAes            0      0.00%     95.00% # Class of committed instruction. (Count)
system.cpu.commitStats0.committedInstType::SimdAesMix            0      0.00%     95.00% # Class of committed instruction. (Count)
system.cpu.commitStats0.committedInstType::SimdSha1Hash            0      0.00%     95.00% # Class of committed instruction. (Count)
system.cpu.commitStats0.committedInstType::SimdSha1Hash2            0      0.00%     95.00% # Class of committed instruction. (Count)
system.cpu.commitStats0.committedInstType::SimdSha256Hash            0      0.00%     95.00% # Class of committed instruction. (Count)
system.cpu.commitStats0.committedInstType::SimdSha256Hash2            0      0.00%     95.00% # Class of committed instruction. (Count)
system.cpu.commitStats0.committedInstType::SimdShaSigma2            0      0.00%     95.00% # Class of committed instruction. (Count)
system.cpu.commitStats0.committedInstType::SimdShaSigma3            0      0.00%     95.00% # Class of committed instruction. (Count)
system.cpu.commitStats0.committedInstType::SimdPredAlu            0      0.00%     95.00% # Class of committed instruction. (Count)
system.cpu.commitStats0.committedInstType::Matrix            0      0.00%     95.00% # Class of committed instruction. (Count)
system.cpu.commitStats0.committedInstType::MatrixMov            0      0.00%     95.00% # Class of committed instruction. (Count)
system.cpu.commitStats0.committedInstType::MatrixOP            0      0.00%     95.00% # Class of committed instruction. (Count)
system.cpu.commitStats0.committedInstType::MemRead            1      5.00%    100.00% # Class of committed instruction. (Count)
system.cpu.commitStats0.committedInstType::MemWrite            0      0.00%    100.00% # Class of committed instruction. (Count)
system.cpu.commitStats0.committedInstType::FloatMemRead            0      0.00%    100.00% # Class of committed instruction. (Count)
system.cpu.commitStats0.committedInstType::FloatMemWrite            0      0.00%    100.00% # Class of committed instruction. (Count)
system.cpu.commitStats0.committedInstType::IprAccess            0      0.00%    100.00% # Class of committed instruction. (Count)
system.cpu.commitStats0.committedInstType::InstPrefetch            0      0.00%    100.00% # Class of committed instruction. (Count)
system.cpu.commitStats0.committedInstType::SimdUnitStrideLoad            0      0.00%    100.00% # Class of committed instruction. (Count)
system.cpu.commitStats0.committedInstType::SimdUnitStrideStore            0      0.00%    100.00% # Class of committed instruction. (Count)
system.cpu.commitStats0.committedInstType::SimdUnitStrideMaskLoad            0      0.00%    100.00% # Class of committed instruction. (Count)
system.cpu.commitStats0.committedInstType::SimdUnitStrideMaskStore            0      0.00%    100.00% # Class of committed instruction. (Count)
system.cpu.commitStats0.committedInstType::SimdStridedLoad            0      0.00%    100.00% # Class of committed instruction. (Count)
system.cpu.commitStats0.committedInstType::SimdStridedStore            0      0.00%    100.00% # Class of committed instruction. (Count)
system.cpu.commitStats0.committedInstType::SimdIndexedLoad            0      0.00%    100.00% # Class of committed instruction. (Count)
system.cpu.commitStats0.committedInstType::SimdIndexedStore            0      0.00%    100.00% # Class of committed instruction. (Count)
system.cpu.commitStats0.committedInstType::SimdWholeRegisterLoad            0      0.00%    100.00% # Class of committed instruction. (Count)
system.cpu.commitStats0.committedInstType::SimdWholeRegisterStore            0      0.00%    100.00% # Class of committed instruction. (Count)
system.cpu.commitStats0.committedInstType::SimdUnitStrideFaultOnlyFirstLoad            0      0.00%    100.00% # Class of committed instruction. (Count)
system.cpu.commitStats0.committedInstType::SimdUnitStrideSegmentedLoad            0      0.00%    100.00% # Class of committed instruction. (Count)
system.cpu.commitStats0.committedInstType::SimdUnitStrideSegmentedStore            0      0.00%    100.00% # Class of committed instruction. (Count)
system.cpu.commitStats0.committedInstType::SimdExt            0      0.00%    100.00% # Class of committed instruction. (Count)
system.cpu.commitStats0.committedInstType::SimdFloatExt            0      0.00%    100.00% # Class of committed instruction. (Count)
system.cpu.commitStats0.committedInstType::SimdConfig            0      0.00%    100.00% # Class of committed instruction. (Count)
system.cpu.commitStats0.committedInstType::total           20                       # Class of committed instruction. (Count)
system.cpu.commitStats0.committedControl::IsControl            5                       # Class of control type instructions committed (Count)
system.cpu.commitStats0.committedControl::IsDirectControl            5                       # Class of control type instructions committed (Count)
system.cpu.commitStats0.committedControl::IsCondControl            5                       # Class of control type instructions committed (Count)
system.cpu.dcache.demandHits::switch_cpus.data      4418104                       # number of demand (read+write) hits (Count)
system.cpu.dcache.demandHits::total           4418104                       # number of demand (read+write) hits (Count)
system.cpu.dcache.overallHits::switch_cpus.data      4418104                       # number of overall hits (Count)
system.cpu.dcache.overallHits::total          4418104                       # number of overall hits (Count)
system.cpu.dcache.demandMisses::cpu.data            1                       # number of demand (read+write) misses (Count)
system.cpu.dcache.demandMisses::switch_cpus.data        14479                       # number of demand (read+write) misses (Count)
system.cpu.dcache.demandMisses::total           14480                       # number of demand (read+write) misses (Count)
system.cpu.dcache.overallMisses::cpu.data            1                       # number of overall misses (Count)
system.cpu.dcache.overallMisses::switch_cpus.data        14479                       # number of overall misses (Count)
system.cpu.dcache.overallMisses::total          14480                       # number of overall misses (Count)
system.cpu.dcache.demandMissLatency::switch_cpus.data    559253995                       # number of demand (read+write) miss ticks (Tick)
system.cpu.dcache.demandMissLatency::total    559253995                       # number of demand (read+write) miss ticks (Tick)
system.cpu.dcache.overallMissLatency::switch_cpus.data    559253995                       # number of overall miss ticks (Tick)
system.cpu.dcache.overallMissLatency::total    559253995                       # number of overall miss ticks (Tick)
system.cpu.dcache.demandAccesses::cpu.data            1                       # number of demand (read+write) accesses (Count)
system.cpu.dcache.demandAccesses::switch_cpus.data      4432583                       # number of demand (read+write) accesses (Count)
system.cpu.dcache.demandAccesses::total       4432584                       # number of demand (read+write) accesses (Count)
system.cpu.dcache.overallAccesses::cpu.data            1                       # number of overall (read+write) accesses (Count)
system.cpu.dcache.overallAccesses::switch_cpus.data      4432583                       # number of overall (read+write) accesses (Count)
system.cpu.dcache.overallAccesses::total      4432584                       # number of overall (read+write) accesses (Count)
system.cpu.dcache.demandMissRate::cpu.data            1                       # miss rate for demand accesses (Ratio)
system.cpu.dcache.demandMissRate::switch_cpus.data     0.003266                       # miss rate for demand accesses (Ratio)
system.cpu.dcache.demandMissRate::total      0.003267                       # miss rate for demand accesses (Ratio)
system.cpu.dcache.overallMissRate::cpu.data            1                       # miss rate for overall accesses (Ratio)
system.cpu.dcache.overallMissRate::switch_cpus.data     0.003266                       # miss rate for overall accesses (Ratio)
system.cpu.dcache.overallMissRate::total     0.003267                       # miss rate for overall accesses (Ratio)
system.cpu.dcache.demandAvgMissLatency::switch_cpus.data 38625.180952                       # average overall miss latency in ticks ((Tick/Count))
system.cpu.dcache.demandAvgMissLatency::total 38622.513467                       # average overall miss latency in ticks ((Tick/Count))
system.cpu.dcache.overallAvgMissLatency::switch_cpus.data 38625.180952                       # average overall miss latency ((Tick/Count))
system.cpu.dcache.overallAvgMissLatency::total 38622.513467                       # average overall miss latency ((Tick/Count))
system.cpu.dcache.blockedCycles::no_mshrs         4839                       # number of cycles access was blocked (Cycle)
system.cpu.dcache.blockedCycles::no_targets         4281                       # number of cycles access was blocked (Cycle)
system.cpu.dcache.blockedCauses::no_mshrs          101                       # number of times access was blocked (Count)
system.cpu.dcache.blockedCauses::no_targets           31                       # number of times access was blocked (Count)
system.cpu.dcache.avgBlocked::no_mshrs      47.910891                       # average number of cycles each access was blocked ((Cycle/Count))
system.cpu.dcache.avgBlocked::no_targets   138.096774                       # average number of cycles each access was blocked ((Cycle/Count))
system.cpu.dcache.writebacks::writebacks          764                       # number of writebacks (Count)
system.cpu.dcache.writebacks::total               764                       # number of writebacks (Count)
system.cpu.dcache.demandMshrHits::switch_cpus.data         7964                       # number of demand (read+write) MSHR hits (Count)
system.cpu.dcache.demandMshrHits::total          7964                       # number of demand (read+write) MSHR hits (Count)
system.cpu.dcache.overallMshrHits::switch_cpus.data         7964                       # number of overall MSHR hits (Count)
system.cpu.dcache.overallMshrHits::total         7964                       # number of overall MSHR hits (Count)
system.cpu.dcache.demandMshrMisses::switch_cpus.data         6515                       # number of demand (read+write) MSHR misses (Count)
system.cpu.dcache.demandMshrMisses::total         6515                       # number of demand (read+write) MSHR misses (Count)
system.cpu.dcache.overallMshrMisses::switch_cpus.data         6515                       # number of overall MSHR misses (Count)
system.cpu.dcache.overallMshrMisses::total         6515                       # number of overall MSHR misses (Count)
system.cpu.dcache.demandMshrMissLatency::switch_cpus.data    245962997                       # number of demand (read+write) MSHR miss ticks (Tick)
system.cpu.dcache.demandMshrMissLatency::total    245962997                       # number of demand (read+write) MSHR miss ticks (Tick)
system.cpu.dcache.overallMshrMissLatency::switch_cpus.data    245962997                       # number of overall MSHR miss ticks (Tick)
system.cpu.dcache.overallMshrMissLatency::total    245962997                       # number of overall MSHR miss ticks (Tick)
system.cpu.dcache.demandMshrMissRate::switch_cpus.data     0.001470                       # mshr miss ratio for demand accesses (Ratio)
system.cpu.dcache.demandMshrMissRate::total     0.001470                       # mshr miss ratio for demand accesses (Ratio)
system.cpu.dcache.overallMshrMissRate::switch_cpus.data     0.001470                       # mshr miss ratio for overall accesses (Ratio)
system.cpu.dcache.overallMshrMissRate::total     0.001470                       # mshr miss ratio for overall accesses (Ratio)
system.cpu.dcache.demandAvgMshrMissLatency::switch_cpus.data 37753.337989                       # average overall mshr miss latency ((Tick/Count))
system.cpu.dcache.demandAvgMshrMissLatency::total 37753.337989                       # average overall mshr miss latency ((Tick/Count))
system.cpu.dcache.overallAvgMshrMissLatency::switch_cpus.data 37753.337989                       # average overall mshr miss latency ((Tick/Count))
system.cpu.dcache.overallAvgMshrMissLatency::total 37753.337989                       # average overall mshr miss latency ((Tick/Count))
system.cpu.dcache.replacements                   4241                       # number of replacements (Count)
system.cpu.dcache.ReadReq.hits::switch_cpus.data      2682436                       # number of ReadReq hits (Count)
system.cpu.dcache.ReadReq.hits::total         2682436                       # number of ReadReq hits (Count)
system.cpu.dcache.ReadReq.misses::cpu.data            1                       # number of ReadReq misses (Count)
system.cpu.dcache.ReadReq.misses::switch_cpus.data        12773                       # number of ReadReq misses (Count)
system.cpu.dcache.ReadReq.misses::total         12774                       # number of ReadReq misses (Count)
system.cpu.dcache.ReadReq.missLatency::switch_cpus.data    505966000                       # number of ReadReq miss ticks (Tick)
system.cpu.dcache.ReadReq.missLatency::total    505966000                       # number of ReadReq miss ticks (Tick)
system.cpu.dcache.ReadReq.accesses::cpu.data            1                       # number of ReadReq accesses(hits+misses) (Count)
system.cpu.dcache.ReadReq.accesses::switch_cpus.data      2695209                       # number of ReadReq accesses(hits+misses) (Count)
system.cpu.dcache.ReadReq.accesses::total      2695210                       # number of ReadReq accesses(hits+misses) (Count)
system.cpu.dcache.ReadReq.missRate::cpu.data            1                       # miss rate for ReadReq accesses (Ratio)
system.cpu.dcache.ReadReq.missRate::switch_cpus.data     0.004739                       # miss rate for ReadReq accesses (Ratio)
system.cpu.dcache.ReadReq.missRate::total     0.004740                       # miss rate for ReadReq accesses (Ratio)
system.cpu.dcache.ReadReq.avgMissLatency::switch_cpus.data 39612.150630                       # average ReadReq miss latency ((Tick/Count))
system.cpu.dcache.ReadReq.avgMissLatency::total 39609.049632                       # average ReadReq miss latency ((Tick/Count))
system.cpu.dcache.ReadReq.mshrHits::switch_cpus.data         6961                       # number of ReadReq MSHR hits (Count)
system.cpu.dcache.ReadReq.mshrHits::total         6961                       # number of ReadReq MSHR hits (Count)
system.cpu.dcache.ReadReq.mshrMisses::switch_cpus.data         5812                       # number of ReadReq MSHR misses (Count)
system.cpu.dcache.ReadReq.mshrMisses::total         5812                       # number of ReadReq MSHR misses (Count)
system.cpu.dcache.ReadReq.mshrMissLatency::switch_cpus.data    225444000                       # number of ReadReq MSHR miss ticks (Tick)
system.cpu.dcache.ReadReq.mshrMissLatency::total    225444000                       # number of ReadReq MSHR miss ticks (Tick)
system.cpu.dcache.ReadReq.mshrMissRate::switch_cpus.data     0.002156                       # mshr miss rate for ReadReq accesses (Ratio)
system.cpu.dcache.ReadReq.mshrMissRate::total     0.002156                       # mshr miss rate for ReadReq accesses (Ratio)
system.cpu.dcache.ReadReq.avgMshrMissLatency::switch_cpus.data 38789.401239                       # average ReadReq mshr miss latency ((Tick/Count))
system.cpu.dcache.ReadReq.avgMshrMissLatency::total 38789.401239                       # average ReadReq mshr miss latency ((Tick/Count))
system.cpu.dcache.WriteReq.hits::switch_cpus.data      1735668                       # number of WriteReq hits (Count)
system.cpu.dcache.WriteReq.hits::total        1735668                       # number of WriteReq hits (Count)
system.cpu.dcache.WriteReq.misses::switch_cpus.data         1706                       # number of WriteReq misses (Count)
system.cpu.dcache.WriteReq.misses::total         1706                       # number of WriteReq misses (Count)
system.cpu.dcache.WriteReq.missLatency::switch_cpus.data     53287995                       # number of WriteReq miss ticks (Tick)
system.cpu.dcache.WriteReq.missLatency::total     53287995                       # number of WriteReq miss ticks (Tick)
system.cpu.dcache.WriteReq.accesses::switch_cpus.data      1737374                       # number of WriteReq accesses(hits+misses) (Count)
system.cpu.dcache.WriteReq.accesses::total      1737374                       # number of WriteReq accesses(hits+misses) (Count)
system.cpu.dcache.WriteReq.missRate::switch_cpus.data     0.000982                       # miss rate for WriteReq accesses (Ratio)
system.cpu.dcache.WriteReq.missRate::total     0.000982                       # miss rate for WriteReq accesses (Ratio)
system.cpu.dcache.WriteReq.avgMissLatency::switch_cpus.data 31235.635991                       # average WriteReq miss latency ((Tick/Count))
system.cpu.dcache.WriteReq.avgMissLatency::total 31235.635991                       # average WriteReq miss latency ((Tick/Count))
system.cpu.dcache.WriteReq.mshrHits::switch_cpus.data         1003                       # number of WriteReq MSHR hits (Count)
system.cpu.dcache.WriteReq.mshrHits::total         1003                       # number of WriteReq MSHR hits (Count)
system.cpu.dcache.WriteReq.mshrMisses::switch_cpus.data          703                       # number of WriteReq MSHR misses (Count)
system.cpu.dcache.WriteReq.mshrMisses::total          703                       # number of WriteReq MSHR misses (Count)
system.cpu.dcache.WriteReq.mshrMissLatency::switch_cpus.data     20518997                       # number of WriteReq MSHR miss ticks (Tick)
system.cpu.dcache.WriteReq.mshrMissLatency::total     20518997                       # number of WriteReq MSHR miss ticks (Tick)
system.cpu.dcache.WriteReq.mshrMissRate::switch_cpus.data     0.000405                       # mshr miss rate for WriteReq accesses (Ratio)
system.cpu.dcache.WriteReq.mshrMissRate::total     0.000405                       # mshr miss rate for WriteReq accesses (Ratio)
system.cpu.dcache.WriteReq.avgMshrMissLatency::switch_cpus.data 29187.762447                       # average WriteReq mshr miss latency ((Tick/Count))
system.cpu.dcache.WriteReq.avgMshrMissLatency::total 29187.762447                       # average WriteReq mshr miss latency ((Tick/Count))
system.cpu.dcache.power_state.pwrStateResidencyTicks::UNDEFINED 432268206163000                       # Cumulative time (in ticks) in various power states (Tick)
system.cpu.dcache.tags.tagsInUse          1834.801610                       # Average ticks per tags in use ((Tick/Count))
system.cpu.dcache.tags.totalRefs               298821                       # Total number of references to valid blocks. (Count)
system.cpu.dcache.tags.sampledRefs               4241                       # Sample count of references to valid blocks. (Count)
system.cpu.dcache.tags.avgRefs              70.460033                       # Average number of references to valid blocks. ((Count/Count))
system.cpu.dcache.tags.warmupTick        432265593515000                       # The tick when the warmup percentage was hit. (Tick)
system.cpu.dcache.tags.occupancies::cpu.data     0.999998                       # Average occupied blocks per tick, per requestor ((Count/Tick))
system.cpu.dcache.tags.occupancies::switch_cpus.data  1833.801612                       # Average occupied blocks per tick, per requestor ((Count/Tick))
system.cpu.dcache.tags.avgOccs::cpu.data     0.000244                       # Average percentage of cache occupancy ((Ratio/Tick))
system.cpu.dcache.tags.avgOccs::switch_cpus.data     0.447705                       # Average percentage of cache occupancy ((Ratio/Tick))
system.cpu.dcache.tags.avgOccs::total        0.447950                       # Average percentage of cache occupancy ((Ratio/Tick))
system.cpu.dcache.tags.occupanciesTaskId::1024         2040                       # Occupied blocks per task id (Count)
system.cpu.dcache.tags.ageTaskId_1024::0           16                       # Occupied blocks per task id, per block age (Count)
system.cpu.dcache.tags.ageTaskId_1024::1          110                       # Occupied blocks per task id, per block age (Count)
system.cpu.dcache.tags.ageTaskId_1024::2          125                       # Occupied blocks per task id, per block age (Count)
system.cpu.dcache.tags.ageTaskId_1024::3         1789                       # Occupied blocks per task id, per block age (Count)
system.cpu.dcache.tags.ratioOccsTaskId::1024     0.498047                       # Ratio of occupied blocks and all blocks, per task id (Ratio)
system.cpu.dcache.tags.tagAccesses            8871449                       # Number of tag accesses (Count)
system.cpu.dcache.tags.dataAccesses           8871449                       # Number of data accesses (Count)
system.cpu.dcache.tags.power_state.pwrStateResidencyTicks::UNDEFINED 432268206163000                       # Cumulative time (in ticks) in various power states (Tick)
system.cpu.exec_context.thread_0.numMatAluAccesses            0                       # Number of matrix alu accesses (Count)
system.cpu.exec_context.thread_0.numCallsReturns            0                       # Number of times a function call or return occured (Count)
system.cpu.exec_context.thread_0.numMatInsts            0                       # Number of matrix instructions (Count)
system.cpu.exec_context.thread_0.numIdleCycles            0                       # Number of idle cycles (Cycle)
system.cpu.exec_context.thread_0.numBusyCycles           20                       # Number of busy cycles (Cycle)
system.cpu.exec_context.thread_0.notIdleFraction            1                       # Percentage of non-idle cycles (Ratio)
system.cpu.exec_context.thread_0.idleFraction            0                       # Percentage of idle cycles (Ratio)
system.cpu.executeStats0.numInsts                   0                       # Number of executed instructions (Count)
system.cpu.executeStats0.numNop                     0                       # Number of nop insts executed (Count)
system.cpu.executeStats0.numBranches                0                       # Number of branches executed (Count)
system.cpu.executeStats0.numLoadInsts               0                       # Number of load instructions executed (Count)
system.cpu.executeStats0.numStoreInsts              1                       # Number of stores executed (Count)
system.cpu.executeStats0.instRate                   0                       # Inst execution rate ((Count/Cycle))
system.cpu.executeStats0.numFpRegWrites             0                       # Number of times the floating registers were written (Count)
system.cpu.executeStats0.numIntAluAccesses           15                       # Number of integer alu accesses (Count)
system.cpu.executeStats0.numIntRegReads            15                       # Number of times the integer registers were read (Count)
system.cpu.executeStats0.numIntRegWrites           11                       # Number of times the integer registers were written (Count)
system.cpu.executeStats0.numMemRefs                 1                       # Number of memory refs (Count)
system.cpu.executeStats0.numVecAluAccesses            0                       # Number of vector alu accesses (Count)
system.cpu.executeStats0.numDiscardedOps            0                       # Number of ops (including micro ops) which were discarded before commit (Count)
system.cpu.fetchStats0.numInsts                    20                       # Number of instructions fetched (thread level) (Count)
system.cpu.fetchStats0.numOps                      20                       # Number of ops (including micro ops) fetched (thread level) (Count)
system.cpu.fetchStats0.fetchRate                    1                       # Number of inst fetches per cycle ((Count/Cycle))
system.cpu.fetchStats0.numBranches                  5                       # Number of branches fetched (Count)
system.cpu.fetchStats0.branchRate            0.250000                       # Number of branch fetches per cycle (Ratio)
system.cpu.fetchStats0.numFetchSuspends             0                       # Number of times Execute suspended instruction fetching (Count)
system.cpu.icache.demandHits::cpu.inst             17                       # number of demand (read+write) hits (Count)
system.cpu.icache.demandHits::switch_cpus.inst      2036580                       # number of demand (read+write) hits (Count)
system.cpu.icache.demandHits::total           2036597                       # number of demand (read+write) hits (Count)
system.cpu.icache.overallHits::cpu.inst            17                       # number of overall hits (Count)
system.cpu.icache.overallHits::switch_cpus.inst      2036580                       # number of overall hits (Count)
system.cpu.icache.overallHits::total          2036597                       # number of overall hits (Count)
system.cpu.icache.demandMisses::cpu.inst            3                       # number of demand (read+write) misses (Count)
system.cpu.icache.demandMisses::switch_cpus.inst        10271                       # number of demand (read+write) misses (Count)
system.cpu.icache.demandMisses::total           10274                       # number of demand (read+write) misses (Count)
system.cpu.icache.overallMisses::cpu.inst            3                       # number of overall misses (Count)
system.cpu.icache.overallMisses::switch_cpus.inst        10271                       # number of overall misses (Count)
system.cpu.icache.overallMisses::total          10274                       # number of overall misses (Count)
system.cpu.icache.demandMissLatency::switch_cpus.inst    337018495                       # number of demand (read+write) miss ticks (Tick)
system.cpu.icache.demandMissLatency::total    337018495                       # number of demand (read+write) miss ticks (Tick)
system.cpu.icache.overallMissLatency::switch_cpus.inst    337018495                       # number of overall miss ticks (Tick)
system.cpu.icache.overallMissLatency::total    337018495                       # number of overall miss ticks (Tick)
system.cpu.icache.demandAccesses::cpu.inst           20                       # number of demand (read+write) accesses (Count)
system.cpu.icache.demandAccesses::switch_cpus.inst      2046851                       # number of demand (read+write) accesses (Count)
system.cpu.icache.demandAccesses::total       2046871                       # number of demand (read+write) accesses (Count)
system.cpu.icache.overallAccesses::cpu.inst           20                       # number of overall (read+write) accesses (Count)
system.cpu.icache.overallAccesses::switch_cpus.inst      2046851                       # number of overall (read+write) accesses (Count)
system.cpu.icache.overallAccesses::total      2046871                       # number of overall (read+write) accesses (Count)
system.cpu.icache.demandMissRate::cpu.inst     0.150000                       # miss rate for demand accesses (Ratio)
system.cpu.icache.demandMissRate::switch_cpus.inst     0.005018                       # miss rate for demand accesses (Ratio)
system.cpu.icache.demandMissRate::total      0.005019                       # miss rate for demand accesses (Ratio)
system.cpu.icache.overallMissRate::cpu.inst     0.150000                       # miss rate for overall accesses (Ratio)
system.cpu.icache.overallMissRate::switch_cpus.inst     0.005018                       # miss rate for overall accesses (Ratio)
system.cpu.icache.overallMissRate::total     0.005019                       # miss rate for overall accesses (Ratio)
system.cpu.icache.demandAvgMissLatency::switch_cpus.inst 32812.627300                       # average overall miss latency in ticks ((Tick/Count))
system.cpu.icache.demandAvgMissLatency::total 32803.046039                       # average overall miss latency in ticks ((Tick/Count))
system.cpu.icache.overallAvgMissLatency::switch_cpus.inst 32812.627300                       # average overall miss latency ((Tick/Count))
system.cpu.icache.overallAvgMissLatency::total 32803.046039                       # average overall miss latency ((Tick/Count))
system.cpu.icache.blockedCycles::no_mshrs         2909                       # number of cycles access was blocked (Cycle)
system.cpu.icache.blockedCycles::no_targets            0                       # number of cycles access was blocked (Cycle)
system.cpu.icache.blockedCauses::no_mshrs           48                       # number of times access was blocked (Count)
system.cpu.icache.blockedCauses::no_targets            0                       # number of times access was blocked (Count)
system.cpu.icache.avgBlocked::no_mshrs      60.604167                       # average number of cycles each access was blocked ((Cycle/Count))
system.cpu.icache.avgBlocked::no_targets          nan                       # average number of cycles each access was blocked ((Cycle/Count))
system.cpu.icache.writebacks::writebacks         6528                       # number of writebacks (Count)
system.cpu.icache.writebacks::total              6528                       # number of writebacks (Count)
system.cpu.icache.demandMshrHits::switch_cpus.inst         1372                       # number of demand (read+write) MSHR hits (Count)
system.cpu.icache.demandMshrHits::total          1372                       # number of demand (read+write) MSHR hits (Count)
system.cpu.icache.overallMshrHits::switch_cpus.inst         1372                       # number of overall MSHR hits (Count)
system.cpu.icache.overallMshrHits::total         1372                       # number of overall MSHR hits (Count)
system.cpu.icache.demandMshrMisses::switch_cpus.inst         8899                       # number of demand (read+write) MSHR misses (Count)
system.cpu.icache.demandMshrMisses::total         8899                       # number of demand (read+write) MSHR misses (Count)
system.cpu.icache.overallMshrMisses::switch_cpus.inst         8899                       # number of overall MSHR misses (Count)
system.cpu.icache.overallMshrMisses::total         8899                       # number of overall MSHR misses (Count)
system.cpu.icache.demandMshrMissLatency::switch_cpus.inst    274974497                       # number of demand (read+write) MSHR miss ticks (Tick)
system.cpu.icache.demandMshrMissLatency::total    274974497                       # number of demand (read+write) MSHR miss ticks (Tick)
system.cpu.icache.overallMshrMissLatency::switch_cpus.inst    274974497                       # number of overall MSHR miss ticks (Tick)
system.cpu.icache.overallMshrMissLatency::total    274974497                       # number of overall MSHR miss ticks (Tick)
system.cpu.icache.demandMshrMissRate::switch_cpus.inst     0.004348                       # mshr miss ratio for demand accesses (Ratio)
system.cpu.icache.demandMshrMissRate::total     0.004348                       # mshr miss ratio for demand accesses (Ratio)
system.cpu.icache.overallMshrMissRate::switch_cpus.inst     0.004348                       # mshr miss ratio for overall accesses (Ratio)
system.cpu.icache.overallMshrMissRate::total     0.004348                       # mshr miss ratio for overall accesses (Ratio)
system.cpu.icache.demandAvgMshrMissLatency::switch_cpus.inst 30899.482751                       # average overall mshr miss latency ((Tick/Count))
system.cpu.icache.demandAvgMshrMissLatency::total 30899.482751                       # average overall mshr miss latency ((Tick/Count))
system.cpu.icache.overallAvgMshrMissLatency::switch_cpus.inst 30899.482751                       # average overall mshr miss latency ((Tick/Count))
system.cpu.icache.overallAvgMshrMissLatency::total 30899.482751                       # average overall mshr miss latency ((Tick/Count))
system.cpu.icache.replacements                   6528                       # number of replacements (Count)
system.cpu.icache.ReadReq.hits::cpu.inst           17                       # number of ReadReq hits (Count)
system.cpu.icache.ReadReq.hits::switch_cpus.inst      2036580                       # number of ReadReq hits (Count)
system.cpu.icache.ReadReq.hits::total         2036597                       # number of ReadReq hits (Count)
system.cpu.icache.ReadReq.misses::cpu.inst            3                       # number of ReadReq misses (Count)
system.cpu.icache.ReadReq.misses::switch_cpus.inst        10271                       # number of ReadReq misses (Count)
system.cpu.icache.ReadReq.misses::total         10274                       # number of ReadReq misses (Count)
system.cpu.icache.ReadReq.missLatency::switch_cpus.inst    337018495                       # number of ReadReq miss ticks (Tick)
system.cpu.icache.ReadReq.missLatency::total    337018495                       # number of ReadReq miss ticks (Tick)
system.cpu.icache.ReadReq.accesses::cpu.inst           20                       # number of ReadReq accesses(hits+misses) (Count)
system.cpu.icache.ReadReq.accesses::switch_cpus.inst      2046851                       # number of ReadReq accesses(hits+misses) (Count)
system.cpu.icache.ReadReq.accesses::total      2046871                       # number of ReadReq accesses(hits+misses) (Count)
system.cpu.icache.ReadReq.missRate::cpu.inst     0.150000                       # miss rate for ReadReq accesses (Ratio)
system.cpu.icache.ReadReq.missRate::switch_cpus.inst     0.005018                       # miss rate for ReadReq accesses (Ratio)
system.cpu.icache.ReadReq.missRate::total     0.005019                       # miss rate for ReadReq accesses (Ratio)
system.cpu.icache.ReadReq.avgMissLatency::switch_cpus.inst 32812.627300                       # average ReadReq miss latency ((Tick/Count))
system.cpu.icache.ReadReq.avgMissLatency::total 32803.046039                       # average ReadReq miss latency ((Tick/Count))
system.cpu.icache.ReadReq.mshrHits::switch_cpus.inst         1372                       # number of ReadReq MSHR hits (Count)
system.cpu.icache.ReadReq.mshrHits::total         1372                       # number of ReadReq MSHR hits (Count)
system.cpu.icache.ReadReq.mshrMisses::switch_cpus.inst         8899                       # number of ReadReq MSHR misses (Count)
system.cpu.icache.ReadReq.mshrMisses::total         8899                       # number of ReadReq MSHR misses (Count)
system.cpu.icache.ReadReq.mshrMissLatency::switch_cpus.inst    274974497                       # number of ReadReq MSHR miss ticks (Tick)
system.cpu.icache.ReadReq.mshrMissLatency::total    274974497                       # number of ReadReq MSHR miss ticks (Tick)
system.cpu.icache.ReadReq.mshrMissRate::switch_cpus.inst     0.004348                       # mshr miss rate for ReadReq accesses (Ratio)
system.cpu.icache.ReadReq.mshrMissRate::total     0.004348                       # mshr miss rate for ReadReq accesses (Ratio)
system.cpu.icache.ReadReq.avgMshrMissLatency::switch_cpus.inst 30899.482751                       # average ReadReq mshr miss latency ((Tick/Count))
system.cpu.icache.ReadReq.avgMshrMissLatency::total 30899.482751                       # average ReadReq mshr miss latency ((Tick/Count))
system.cpu.icache.power_state.pwrStateResidencyTicks::UNDEFINED 432268206163000                       # Cumulative time (in ticks) in various power states (Tick)
system.cpu.icache.tags.tagsInUse          2028.437438                       # Average ticks per tags in use ((Tick/Count))
system.cpu.icache.tags.totalRefs               210606                       # Total number of references to valid blocks. (Count)
system.cpu.icache.tags.sampledRefs               6757                       # Sample count of references to valid blocks. (Count)
system.cpu.icache.tags.avgRefs              31.168566                       # Average number of references to valid blocks. ((Count/Count))
system.cpu.icache.tags.warmupTick        432265593510500                       # The tick when the warmup percentage was hit. (Tick)
system.cpu.icache.tags.occupancies::cpu.inst     2.999997                       # Average occupied blocks per tick, per requestor ((Count/Tick))
system.cpu.icache.tags.occupancies::switch_cpus.inst  2025.437441                       # Average occupied blocks per tick, per requestor ((Count/Tick))
system.cpu.icache.tags.avgOccs::cpu.inst     0.000732                       # Average percentage of cache occupancy ((Ratio/Tick))
system.cpu.icache.tags.avgOccs::switch_cpus.inst     0.494492                       # Average percentage of cache occupancy ((Ratio/Tick))
system.cpu.icache.tags.avgOccs::total        0.495224                       # Average percentage of cache occupancy ((Ratio/Tick))
system.cpu.icache.tags.occupanciesTaskId::1024         2145                       # Occupied blocks per task id (Count)
system.cpu.icache.tags.ageTaskId_1024::0           12                       # Occupied blocks per task id, per block age (Count)
system.cpu.icache.tags.ageTaskId_1024::1          104                       # Occupied blocks per task id, per block age (Count)
system.cpu.icache.tags.ageTaskId_1024::2           95                       # Occupied blocks per task id, per block age (Count)
system.cpu.icache.tags.ageTaskId_1024::3         1934                       # Occupied blocks per task id, per block age (Count)
system.cpu.icache.tags.ratioOccsTaskId::1024     0.523682                       # Ratio of occupied blocks and all blocks, per task id (Ratio)
system.cpu.icache.tags.tagAccesses            4102644                       # Number of tag accesses (Count)
system.cpu.icache.tags.dataAccesses           4102644                       # Number of data accesses (Count)
system.cpu.icache.tags.power_state.pwrStateResidencyTicks::UNDEFINED 432268206163000                       # Cumulative time (in ticks) in various power states (Tick)
system.cpu.mmu.alignFaults                          0                       # Number of MMU faults due to alignment restrictions (Count)
system.cpu.mmu.prefetchFaults                       0                       # Number of MMU faults due to prefetch (Count)
system.cpu.mmu.domainFaults                         0                       # Number of MMU faults due to domain restrictions (Count)
system.cpu.mmu.permsFaults                          0                       # Number of MMU faults due to permissions restrictions (Count)
system.cpu.mmu.dtb.readHits                         0                       # Read hits (Count)
system.cpu.mmu.dtb.readMisses                       0                       # Read misses (Count)
system.cpu.mmu.dtb.writeHits                        0                       # Write hits (Count)
system.cpu.mmu.dtb.writeMisses                      0                       # Write misses (Count)
system.cpu.mmu.dtb.inserts                          0                       # Number of times an entry is inserted into the TLB (Count)
system.cpu.mmu.dtb.flushTlb                         1                       # Number of times a TLB invalidation was requested (Count)
system.cpu.mmu.dtb.flushedEntries                   0                       # Number of entries that have been flushed from TLB (Count)
system.cpu.mmu.dtb.readAccesses                     0                       # Read accesses (Count)
system.cpu.mmu.dtb.writeAccesses                    0                       # Write accesses (Count)
system.cpu.mmu.dtb.hits                             0                       # Total TLB (inst and data) hits (Count)
system.cpu.mmu.dtb.misses                           0                       # Total TLB (inst and data) misses (Count)
system.cpu.mmu.dtb.accesses                         0                       # Total TLB (inst and data) accesses (Count)
system.cpu.mmu.dtb_walker.walks                     0                       # Table walker walks requested (Count)
system.cpu.mmu.dtb_walker.requestOrigin_Requested::Data            0                       # Table walker requests started/completed, data/inst (Count)
system.cpu.mmu.dtb_walker.requestOrigin_Requested::Inst            0                       # Table walker requests started/completed, data/inst (Count)
system.cpu.mmu.dtb_walker.requestOrigin_Requested::total            0                       # Table walker requests started/completed, data/inst (Count)
system.cpu.mmu.dtb_walker.requestOrigin_Completed::Data            0                       # Table walker requests started/completed, data/inst (Count)
system.cpu.mmu.dtb_walker.requestOrigin_Completed::Inst            0                       # Table walker requests started/completed, data/inst (Count)
system.cpu.mmu.dtb_walker.requestOrigin_Completed::total            0                       # Table walker requests started/completed, data/inst (Count)
system.cpu.mmu.dtb_walker.requestOrigin::total            0                       # Table walker requests started/completed, data/inst (Count)
system.cpu.mmu.dtb_walker.power_state.pwrStateResidencyTicks::UNDEFINED 432268206163000                       # Cumulative time (in ticks) in various power states (Tick)
system.cpu.mmu.itb.instHits                         0                       # Inst hits (Count)
system.cpu.mmu.itb.instMisses                       0                       # Inst misses (Count)
system.cpu.mmu.itb.inserts                          0                       # Number of times an entry is inserted into the TLB (Count)
system.cpu.mmu.itb.flushTlb                         1                       # Number of times a TLB invalidation was requested (Count)
system.cpu.mmu.itb.flushedEntries                   0                       # Number of entries that have been flushed from TLB (Count)
system.cpu.mmu.itb.instAccesses                     0                       # Inst accesses (Count)
system.cpu.mmu.itb.hits                             0                       # Total TLB (inst and data) hits (Count)
system.cpu.mmu.itb.misses                           0                       # Total TLB (inst and data) misses (Count)
system.cpu.mmu.itb.accesses                         0                       # Total TLB (inst and data) accesses (Count)
system.cpu.mmu.itb_walker.walks                     0                       # Table walker walks requested (Count)
system.cpu.mmu.itb_walker.requestOrigin_Requested::Data            0                       # Table walker requests started/completed, data/inst (Count)
system.cpu.mmu.itb_walker.requestOrigin_Requested::Inst            0                       # Table walker requests started/completed, data/inst (Count)
system.cpu.mmu.itb_walker.requestOrigin_Requested::total            0                       # Table walker requests started/completed, data/inst (Count)
system.cpu.mmu.itb_walker.requestOrigin_Completed::Data            0                       # Table walker requests started/completed, data/inst (Count)
system.cpu.mmu.itb_walker.requestOrigin_Completed::Inst            0                       # Table walker requests started/completed, data/inst (Count)
system.cpu.mmu.itb_walker.requestOrigin_Completed::total            0                       # Table walker requests started/completed, data/inst (Count)
system.cpu.mmu.itb_walker.requestOrigin::total            0                       # Table walker requests started/completed, data/inst (Count)
system.cpu.mmu.itb_walker.power_state.pwrStateResidencyTicks::UNDEFINED 432268206163000                       # Cumulative time (in ticks) in various power states (Tick)
system.cpu.mmu.l2_shared.instHits                   0                       # Inst hits (Count)
system.cpu.mmu.l2_shared.instMisses                 0                       # Inst misses (Count)
system.cpu.mmu.l2_shared.inserts                    0                       # Number of times an entry is inserted into the TLB (Count)
system.cpu.mmu.l2_shared.flushTlb                   1                       # Number of times a TLB invalidation was requested (Count)
system.cpu.mmu.l2_shared.flushedEntries             0                       # Number of entries that have been flushed from TLB (Count)
system.cpu.mmu.l2_shared.instAccesses               0                       # Inst accesses (Count)
system.cpu.mmu.l2_shared.hits                       0                       # Total TLB (inst and data) hits (Count)
system.cpu.mmu.l2_shared.misses                     0                       # Total TLB (inst and data) misses (Count)
system.cpu.mmu.l2_shared.accesses                   0                       # Total TLB (inst and data) accesses (Count)
system.cpu.mmu.stage2_dtb.readHits                  0                       # Read hits (Count)
system.cpu.mmu.stage2_dtb.readMisses                0                       # Read misses (Count)
system.cpu.mmu.stage2_dtb.writeHits                 0                       # Write hits (Count)
system.cpu.mmu.stage2_dtb.writeMisses               0                       # Write misses (Count)
system.cpu.mmu.stage2_dtb.inserts                   0                       # Number of times an entry is inserted into the TLB (Count)
system.cpu.mmu.stage2_dtb.flushTlb                  1                       # Number of times a TLB invalidation was requested (Count)
system.cpu.mmu.stage2_dtb.flushedEntries            0                       # Number of entries that have been flushed from TLB (Count)
system.cpu.mmu.stage2_dtb.readAccesses              0                       # Read accesses (Count)
system.cpu.mmu.stage2_dtb.writeAccesses             0                       # Write accesses (Count)
system.cpu.mmu.stage2_dtb.hits                      0                       # Total TLB (inst and data) hits (Count)
system.cpu.mmu.stage2_dtb.misses                    0                       # Total TLB (inst and data) misses (Count)
system.cpu.mmu.stage2_dtb.accesses                  0                       # Total TLB (inst and data) accesses (Count)
system.cpu.mmu.stage2_dtb_walker.walks              0                       # Table walker walks requested (Count)
system.cpu.mmu.stage2_dtb_walker.requestOrigin_Requested::Data            0                       # Table walker requests started/completed, data/inst (Count)
system.cpu.mmu.stage2_dtb_walker.requestOrigin_Requested::Inst            0                       # Table walker requests started/completed, data/inst (Count)
system.cpu.mmu.stage2_dtb_walker.requestOrigin_Requested::total            0                       # Table walker requests started/completed, data/inst (Count)
system.cpu.mmu.stage2_dtb_walker.requestOrigin_Completed::Data            0                       # Table walker requests started/completed, data/inst (Count)
system.cpu.mmu.stage2_dtb_walker.requestOrigin_Completed::Inst            0                       # Table walker requests started/completed, data/inst (Count)
system.cpu.mmu.stage2_dtb_walker.requestOrigin_Completed::total            0                       # Table walker requests started/completed, data/inst (Count)
system.cpu.mmu.stage2_dtb_walker.requestOrigin::total            0                       # Table walker requests started/completed, data/inst (Count)
system.cpu.mmu.stage2_dtb_walker.power_state.pwrStateResidencyTicks::UNDEFINED 432268206163000                       # Cumulative time (in ticks) in various power states (Tick)
system.cpu.mmu.stage2_itb.instHits                  0                       # Inst hits (Count)
system.cpu.mmu.stage2_itb.instMisses                0                       # Inst misses (Count)
system.cpu.mmu.stage2_itb.inserts                   0                       # Number of times an entry is inserted into the TLB (Count)
system.cpu.mmu.stage2_itb.flushTlb                  1                       # Number of times a TLB invalidation was requested (Count)
system.cpu.mmu.stage2_itb.flushedEntries            0                       # Number of entries that have been flushed from TLB (Count)
system.cpu.mmu.stage2_itb.instAccesses              0                       # Inst accesses (Count)
system.cpu.mmu.stage2_itb.hits                      0                       # Total TLB (inst and data) hits (Count)
system.cpu.mmu.stage2_itb.misses                    0                       # Total TLB (inst and data) misses (Count)
system.cpu.mmu.stage2_itb.accesses                  0                       # Total TLB (inst and data) accesses (Count)
system.cpu.mmu.stage2_itb_walker.walks              0                       # Table walker walks requested (Count)
system.cpu.mmu.stage2_itb_walker.requestOrigin_Requested::Data            0                       # Table walker requests started/completed, data/inst (Count)
system.cpu.mmu.stage2_itb_walker.requestOrigin_Requested::Inst            0                       # Table walker requests started/completed, data/inst (Count)
system.cpu.mmu.stage2_itb_walker.requestOrigin_Requested::total            0                       # Table walker requests started/completed, data/inst (Count)
system.cpu.mmu.stage2_itb_walker.requestOrigin_Completed::Data            0                       # Table walker requests started/completed, data/inst (Count)
system.cpu.mmu.stage2_itb_walker.requestOrigin_Completed::Inst            0                       # Table walker requests started/completed, data/inst (Count)
system.cpu.mmu.stage2_itb_walker.requestOrigin_Completed::total            0                       # Table walker requests started/completed, data/inst (Count)
system.cpu.mmu.stage2_itb_walker.requestOrigin::total            0                       # Table walker requests started/completed, data/inst (Count)
system.cpu.mmu.stage2_itb_walker.power_state.pwrStateResidencyTicks::UNDEFINED 432268206163000                       # Cumulative time (in ticks) in various power states (Tick)
system.cpu.power_state.numTransitions               1                       # Number of power state transitions (Count)
system.cpu.power_state.pwrStateResidencyTicks::ON 432265593520000                       # Cumulative time (in ticks) in various power states (Tick)
system.cpu.power_state.pwrStateResidencyTicks::OFF   2612643000                       # Cumulative time (in ticks) in various power states (Tick)
system.cpu.thread_0.numInsts                        0                       # Number of Instructions committed (Count)
system.cpu.thread_0.numOps                          0                       # Number of Ops committed (Count)
system.cpu.thread_0.numMemRefs                      0                       # Number of Memory References (Count)
system.cpu.workload.numSyscalls                     0                       # Number of system calls (Count)
system.cpu_clk_domain.clock                       500                       # Clock period in ticks (Tick)
system.cpu_voltage_domain.voltage                   1                       # Voltage in Volts (Volt)
system.l2.demandHits::switch_cpus.inst           6339                       # number of demand (read+write) hits (Count)
system.l2.demandHits::switch_cpus.data           4076                       # number of demand (read+write) hits (Count)
system.l2.demandHits::total                     10415                       # number of demand (read+write) hits (Count)
system.l2.overallHits::switch_cpus.inst          6339                       # number of overall hits (Count)
system.l2.overallHits::switch_cpus.data          4076                       # number of overall hits (Count)
system.l2.overallHits::total                    10415                       # number of overall hits (Count)
system.l2.demandMisses::cpu.inst                    3                       # number of demand (read+write) misses (Count)
system.l2.demandMisses::cpu.data                    1                       # number of demand (read+write) misses (Count)
system.l2.demandMisses::switch_cpus.inst         2327                       # number of demand (read+write) misses (Count)
system.l2.demandMisses::switch_cpus.data         2200                       # number of demand (read+write) misses (Count)
system.l2.demandMisses::total                    4531                       # number of demand (read+write) misses (Count)
system.l2.overallMisses::cpu.inst                   3                       # number of overall misses (Count)
system.l2.overallMisses::cpu.data                   1                       # number of overall misses (Count)
system.l2.overallMisses::switch_cpus.inst         2327                       # number of overall misses (Count)
system.l2.overallMisses::switch_cpus.data         2200                       # number of overall misses (Count)
system.l2.overallMisses::total                   4531                       # number of overall misses (Count)
system.l2.demandMissLatency::switch_cpus.inst    194254500                       # number of demand (read+write) miss ticks (Tick)
system.l2.demandMissLatency::switch_cpus.data    190298500                       # number of demand (read+write) miss ticks (Tick)
system.l2.demandMissLatency::total          384553000                       # number of demand (read+write) miss ticks (Tick)
system.l2.overallMissLatency::switch_cpus.inst    194254500                       # number of overall miss ticks (Tick)
system.l2.overallMissLatency::switch_cpus.data    190298500                       # number of overall miss ticks (Tick)
system.l2.overallMissLatency::total         384553000                       # number of overall miss ticks (Tick)
system.l2.demandAccesses::cpu.inst                  3                       # number of demand (read+write) accesses (Count)
system.l2.demandAccesses::cpu.data                  1                       # number of demand (read+write) accesses (Count)
system.l2.demandAccesses::switch_cpus.inst         8666                       # number of demand (read+write) accesses (Count)
system.l2.demandAccesses::switch_cpus.data         6276                       # number of demand (read+write) accesses (Count)
system.l2.demandAccesses::total                 14946                       # number of demand (read+write) accesses (Count)
system.l2.overallAccesses::cpu.inst                 3                       # number of overall (read+write) accesses (Count)
system.l2.overallAccesses::cpu.data                 1                       # number of overall (read+write) accesses (Count)
system.l2.overallAccesses::switch_cpus.inst         8666                       # number of overall (read+write) accesses (Count)
system.l2.overallAccesses::switch_cpus.data         6276                       # number of overall (read+write) accesses (Count)
system.l2.overallAccesses::total                14946                       # number of overall (read+write) accesses (Count)
system.l2.demandMissRate::cpu.inst                  1                       # miss rate for demand accesses (Ratio)
system.l2.demandMissRate::cpu.data                  1                       # miss rate for demand accesses (Ratio)
system.l2.demandMissRate::switch_cpus.inst     0.268521                       # miss rate for demand accesses (Ratio)
system.l2.demandMissRate::switch_cpus.data     0.350542                       # miss rate for demand accesses (Ratio)
system.l2.demandMissRate::total              0.303158                       # miss rate for demand accesses (Ratio)
system.l2.overallMissRate::cpu.inst                 1                       # miss rate for overall accesses (Ratio)
system.l2.overallMissRate::cpu.data                 1                       # miss rate for overall accesses (Ratio)
system.l2.overallMissRate::switch_cpus.inst     0.268521                       # miss rate for overall accesses (Ratio)
system.l2.overallMissRate::switch_cpus.data     0.350542                       # miss rate for overall accesses (Ratio)
system.l2.overallMissRate::total             0.303158                       # miss rate for overall accesses (Ratio)
system.l2.demandAvgMissLatency::switch_cpus.inst 83478.513107                       # average overall miss latency in ticks ((Tick/Count))
system.l2.demandAvgMissLatency::switch_cpus.data 86499.318182                       # average overall miss latency in ticks ((Tick/Count))
system.l2.demandAvgMissLatency::total    84871.551534                       # average overall miss latency in ticks ((Tick/Count))
system.l2.overallAvgMissLatency::switch_cpus.inst 83478.513107                       # average overall miss latency ((Tick/Count))
system.l2.overallAvgMissLatency::switch_cpus.data 86499.318182                       # average overall miss latency ((Tick/Count))
system.l2.overallAvgMissLatency::total   84871.551534                       # average overall miss latency ((Tick/Count))
system.l2.blockedCycles::no_mshrs                   0                       # number of cycles access was blocked (Cycle)
system.l2.blockedCycles::no_targets                 0                       # number of cycles access was blocked (Cycle)
system.l2.blockedCauses::no_mshrs                   0                       # number of times access was blocked (Count)
system.l2.blockedCauses::no_targets                 0                       # number of times access was blocked (Count)
system.l2.avgBlocked::no_mshrs                    nan                       # average number of cycles each access was blocked ((Cycle/Count))
system.l2.avgBlocked::no_targets                  nan                       # average number of cycles each access was blocked ((Cycle/Count))
system.l2.demandMshrHits::switch_cpus.inst            1                       # number of demand (read+write) MSHR hits (Count)
system.l2.demandMshrHits::total                     1                       # number of demand (read+write) MSHR hits (Count)
system.l2.overallMshrHits::switch_cpus.inst            1                       # number of overall MSHR hits (Count)
system.l2.overallMshrHits::total                    1                       # number of overall MSHR hits (Count)
system.l2.demandMshrMisses::switch_cpus.inst         2326                       # number of demand (read+write) MSHR misses (Count)
system.l2.demandMshrMisses::switch_cpus.data         2200                       # number of demand (read+write) MSHR misses (Count)
system.l2.demandMshrMisses::total                4526                       # number of demand (read+write) MSHR misses (Count)
system.l2.overallMshrMisses::switch_cpus.inst         2326                       # number of overall MSHR misses (Count)
system.l2.overallMshrMisses::switch_cpus.data         2200                       # number of overall MSHR misses (Count)
system.l2.overallMshrMisses::total               4526                       # number of overall MSHR misses (Count)
system.l2.demandMshrMissLatency::switch_cpus.inst    170963500                       # number of demand (read+write) MSHR miss ticks (Tick)
system.l2.demandMshrMissLatency::switch_cpus.data    168298500                       # number of demand (read+write) MSHR miss ticks (Tick)
system.l2.demandMshrMissLatency::total      339262000                       # number of demand (read+write) MSHR miss ticks (Tick)
system.l2.overallMshrMissLatency::switch_cpus.inst    170963500                       # number of overall MSHR miss ticks (Tick)
system.l2.overallMshrMissLatency::switch_cpus.data    168298500                       # number of overall MSHR miss ticks (Tick)
system.l2.overallMshrMissLatency::total     339262000                       # number of overall MSHR miss ticks (Tick)
system.l2.demandMshrMissRate::switch_cpus.inst     0.268405                       # mshr miss ratio for demand accesses (Ratio)
system.l2.demandMshrMissRate::switch_cpus.data     0.350542                       # mshr miss ratio for demand accesses (Ratio)
system.l2.demandMshrMissRate::total          0.302823                       # mshr miss ratio for demand accesses (Ratio)
system.l2.overallMshrMissRate::switch_cpus.inst     0.268405                       # mshr miss ratio for overall accesses (Ratio)
system.l2.overallMshrMissRate::switch_cpus.data     0.350542                       # mshr miss ratio for overall accesses (Ratio)
system.l2.overallMshrMissRate::total         0.302823                       # mshr miss ratio for overall accesses (Ratio)
system.l2.demandAvgMshrMissLatency::switch_cpus.inst 73501.074807                       # average overall mshr miss latency ((Tick/Count))
system.l2.demandAvgMshrMissLatency::switch_cpus.data 76499.318182                       # average overall mshr miss latency ((Tick/Count))
system.l2.demandAvgMshrMissLatency::total 74958.462218                       # average overall mshr miss latency ((Tick/Count))
system.l2.overallAvgMshrMissLatency::switch_cpus.inst 73501.074807                       # average overall mshr miss latency ((Tick/Count))
system.l2.overallAvgMshrMissLatency::switch_cpus.data 76499.318182                       # average overall mshr miss latency ((Tick/Count))
system.l2.overallAvgMshrMissLatency::total 74958.462218                       # average overall mshr miss latency ((Tick/Count))
system.l2.replacements                              0                       # number of replacements (Count)
system.l2.InvalidateReq.hits::switch_cpus.data            1                       # number of InvalidateReq hits (Count)
system.l2.InvalidateReq.hits::total                 1                       # number of InvalidateReq hits (Count)
system.l2.InvalidateReq.misses::switch_cpus.data            4                       # number of InvalidateReq misses (Count)
system.l2.InvalidateReq.misses::total               4                       # number of InvalidateReq misses (Count)
system.l2.InvalidateReq.accesses::switch_cpus.data            5                       # number of InvalidateReq accesses(hits+misses) (Count)
system.l2.InvalidateReq.accesses::total             5                       # number of InvalidateReq accesses(hits+misses) (Count)
system.l2.InvalidateReq.missRate::switch_cpus.data     0.800000                       # miss rate for InvalidateReq accesses (Ratio)
system.l2.InvalidateReq.missRate::total      0.800000                       # miss rate for InvalidateReq accesses (Ratio)
system.l2.InvalidateReq.mshrMisses::switch_cpus.data            4                       # number of InvalidateReq MSHR misses (Count)
system.l2.InvalidateReq.mshrMisses::total            4                       # number of InvalidateReq MSHR misses (Count)
system.l2.InvalidateReq.mshrMissLatency::switch_cpus.data        78000                       # number of InvalidateReq MSHR miss ticks (Tick)
system.l2.InvalidateReq.mshrMissLatency::total        78000                       # number of InvalidateReq MSHR miss ticks (Tick)
system.l2.InvalidateReq.mshrMissRate::switch_cpus.data     0.800000                       # mshr miss rate for InvalidateReq accesses (Ratio)
system.l2.InvalidateReq.mshrMissRate::total     0.800000                       # mshr miss rate for InvalidateReq accesses (Ratio)
system.l2.InvalidateReq.avgMshrMissLatency::switch_cpus.data        19500                       # average InvalidateReq mshr miss latency ((Tick/Count))
system.l2.InvalidateReq.avgMshrMissLatency::total        19500                       # average InvalidateReq mshr miss latency ((Tick/Count))
system.l2.ReadCleanReq.hits::switch_cpus.inst         6339                       # number of ReadCleanReq hits (Count)
system.l2.ReadCleanReq.hits::total               6339                       # number of ReadCleanReq hits (Count)
system.l2.ReadCleanReq.misses::cpu.inst             3                       # number of ReadCleanReq misses (Count)
system.l2.ReadCleanReq.misses::switch_cpus.inst         2327                       # number of ReadCleanReq misses (Count)
system.l2.ReadCleanReq.misses::total             2330                       # number of ReadCleanReq misses (Count)
system.l2.ReadCleanReq.missLatency::switch_cpus.inst    194254500                       # number of ReadCleanReq miss ticks (Tick)
system.l2.ReadCleanReq.missLatency::total    194254500                       # number of ReadCleanReq miss ticks (Tick)
system.l2.ReadCleanReq.accesses::cpu.inst            3                       # number of ReadCleanReq accesses(hits+misses) (Count)
system.l2.ReadCleanReq.accesses::switch_cpus.inst         8666                       # number of ReadCleanReq accesses(hits+misses) (Count)
system.l2.ReadCleanReq.accesses::total           8669                       # number of ReadCleanReq accesses(hits+misses) (Count)
system.l2.ReadCleanReq.missRate::cpu.inst            1                       # miss rate for ReadCleanReq accesses (Ratio)
system.l2.ReadCleanReq.missRate::switch_cpus.inst     0.268521                       # miss rate for ReadCleanReq accesses (Ratio)
system.l2.ReadCleanReq.missRate::total       0.268774                       # miss rate for ReadCleanReq accesses (Ratio)
system.l2.ReadCleanReq.avgMissLatency::switch_cpus.inst 83478.513107                       # average ReadCleanReq miss latency ((Tick/Count))
system.l2.ReadCleanReq.avgMissLatency::total 83371.030043                       # average ReadCleanReq miss latency ((Tick/Count))
system.l2.ReadCleanReq.mshrHits::switch_cpus.inst            1                       # number of ReadCleanReq MSHR hits (Count)
system.l2.ReadCleanReq.mshrHits::total              1                       # number of ReadCleanReq MSHR hits (Count)
system.l2.ReadCleanReq.mshrMisses::switch_cpus.inst         2326                       # number of ReadCleanReq MSHR misses (Count)
system.l2.ReadCleanReq.mshrMisses::total         2326                       # number of ReadCleanReq MSHR misses (Count)
system.l2.ReadCleanReq.mshrMissLatency::switch_cpus.inst    170963500                       # number of ReadCleanReq MSHR miss ticks (Tick)
system.l2.ReadCleanReq.mshrMissLatency::total    170963500                       # number of ReadCleanReq MSHR miss ticks (Tick)
system.l2.ReadCleanReq.mshrMissRate::switch_cpus.inst     0.268405                       # mshr miss rate for ReadCleanReq accesses (Ratio)
system.l2.ReadCleanReq.mshrMissRate::total     0.268312                       # mshr miss rate for ReadCleanReq accesses (Ratio)
system.l2.ReadCleanReq.avgMshrMissLatency::switch_cpus.inst 73501.074807                       # average ReadCleanReq mshr miss latency ((Tick/Count))
system.l2.ReadCleanReq.avgMshrMissLatency::total 73501.074807                       # average ReadCleanReq mshr miss latency ((Tick/Count))
system.l2.ReadExReq.hits::switch_cpus.data          309                       # number of ReadExReq hits (Count)
system.l2.ReadExReq.hits::total                   309                       # number of ReadExReq hits (Count)
system.l2.ReadExReq.misses::switch_cpus.data          155                       # number of ReadExReq misses (Count)
system.l2.ReadExReq.misses::total                 155                       # number of ReadExReq misses (Count)
system.l2.ReadExReq.missLatency::switch_cpus.data     13372000                       # number of ReadExReq miss ticks (Tick)
system.l2.ReadExReq.missLatency::total       13372000                       # number of ReadExReq miss ticks (Tick)
system.l2.ReadExReq.accesses::switch_cpus.data          464                       # number of ReadExReq accesses(hits+misses) (Count)
system.l2.ReadExReq.accesses::total               464                       # number of ReadExReq accesses(hits+misses) (Count)
system.l2.ReadExReq.missRate::switch_cpus.data     0.334052                       # miss rate for ReadExReq accesses (Ratio)
system.l2.ReadExReq.missRate::total          0.334052                       # miss rate for ReadExReq accesses (Ratio)
system.l2.ReadExReq.avgMissLatency::switch_cpus.data 86270.967742                       # average ReadExReq miss latency ((Tick/Count))
system.l2.ReadExReq.avgMissLatency::total 86270.967742                       # average ReadExReq miss latency ((Tick/Count))
system.l2.ReadExReq.mshrMisses::switch_cpus.data          155                       # number of ReadExReq MSHR misses (Count)
system.l2.ReadExReq.mshrMisses::total             155                       # number of ReadExReq MSHR misses (Count)
system.l2.ReadExReq.mshrMissLatency::switch_cpus.data     11822000                       # number of ReadExReq MSHR miss ticks (Tick)
system.l2.ReadExReq.mshrMissLatency::total     11822000                       # number of ReadExReq MSHR miss ticks (Tick)
system.l2.ReadExReq.mshrMissRate::switch_cpus.data     0.334052                       # mshr miss rate for ReadExReq accesses (Ratio)
system.l2.ReadExReq.mshrMissRate::total      0.334052                       # mshr miss rate for ReadExReq accesses (Ratio)
system.l2.ReadExReq.avgMshrMissLatency::switch_cpus.data 76270.967742                       # average ReadExReq mshr miss latency ((Tick/Count))
system.l2.ReadExReq.avgMshrMissLatency::total 76270.967742                       # average ReadExReq mshr miss latency ((Tick/Count))
system.l2.ReadSharedReq.hits::switch_cpus.data         3767                       # number of ReadSharedReq hits (Count)
system.l2.ReadSharedReq.hits::total              3767                       # number of ReadSharedReq hits (Count)
system.l2.ReadSharedReq.misses::cpu.data            1                       # number of ReadSharedReq misses (Count)
system.l2.ReadSharedReq.misses::switch_cpus.data         2045                       # number of ReadSharedReq misses (Count)
system.l2.ReadSharedReq.misses::total            2046                       # number of ReadSharedReq misses (Count)
system.l2.ReadSharedReq.missLatency::switch_cpus.data    176926500                       # number of ReadSharedReq miss ticks (Tick)
system.l2.ReadSharedReq.missLatency::total    176926500                       # number of ReadSharedReq miss ticks (Tick)
[...]
system.switch_cpus.mmu.dtb_walker.requestOrigin_Completed::Data            0                       # Table walker requests started/completed, data/inst (Count)
system.switch_cpus.mmu.dtb_walker.requestOrigin_Completed::Inst            0                       # Table walker requests started/completed, data/inst (Count)
system.switch_cpus.mmu.dtb_walker.requestOrigin_Completed::total            0                       # Table walker requests started/completed, data/inst (Count)
system.switch_cpus.mmu.dtb_walker.requestOrigin::total            0                       # Table walker requests started/completed, data/inst (Count)
system.switch_cpus.mmu.dtb_walker.power_state.pwrStateResidencyTicks::UNDEFINED  24975772000                       # Cumulative time (in ticks) in various power states (Tick)
system.switch_cpus.mmu.itb.instHits                 0                       # Inst hits (Count)
system.switch_cpus.mmu.itb.instMisses               0                       # Inst misses (Count)
system.switch_cpus.mmu.itb.inserts                  0                       # Number of times an entry is inserted into the TLB (Count)
system.switch_cpus.mmu.itb.flushTlb                 0                       # Number of times a TLB invalidation was requested (Count)
system.switch_cpus.mmu.itb.flushedEntries            0                       # Number of entries that have been flushed from TLB (Count)
system.switch_cpus.mmu.itb.instAccesses             0                       # Inst accesses (Count)
system.switch_cpus.mmu.itb.hits                     0                       # Total TLB (inst and data) hits (Count)
system.switch_cpus.mmu.itb.misses                   0                       # Total TLB (inst and data) misses (Count)
system.switch_cpus.mmu.itb.accesses                 0                       # Total TLB (inst and data) accesses (Count)
system.switch_cpus.mmu.itb_walker.walks             0                       # Table walker walks requested (Count)
system.switch_cpus.mmu.itb_walker.requestOrigin_Requested::Data            0                       # Table walker requests started/completed, data/inst (Count)
system.switch_cpus.mmu.itb_walker.requestOrigin_Requested::Inst            0                       # Table walker requests started/completed, data/inst (Count)
system.switch_cpus.mmu.itb_walker.requestOrigin_Requested::total            0                       # Table walker requests started/completed, data/inst (Count)
system.switch_cpus.mmu.itb_walker.requestOrigin_Completed::Data            0                       # Table walker requests started/completed, data/inst (Count)
system.switch_cpus.mmu.itb_walker.requestOrigin_Completed::Inst            0                       # Table walker requests started/completed, data/inst (Count)
system.switch_cpus.mmu.itb_walker.requestOrigin_Completed::total            0                       # Table walker requests started/completed, data/inst (Count)
system.switch_cpus.mmu.itb_walker.requestOrigin::total            0                       # Table walker requests started/completed, data/inst (Count)
system.switch_cpus.mmu.itb_walker.power_state.pwrStateResidencyTicks::UNDEFINED  24975772000                       # Cumulative time (in ticks) in various power states (Tick)
system.switch_cpus.mmu.l2_shared.instHits            0                       # Inst hits (Count)
system.switch_cpus.mmu.l2_shared.instMisses            0                       # Inst misses (Count)
system.switch_cpus.mmu.l2_shared.inserts            0                       # Number of times an entry is inserted into the TLB (Count)
system.switch_cpus.mmu.l2_shared.flushTlb            0                       # Number of times a TLB invalidation was requested (Count)
system.switch_cpus.mmu.l2_shared.flushedEntries            0                       # Number of entries that have been flushed from TLB (Count)
system.switch_cpus.mmu.l2_shared.instAccesses            0                       # Inst accesses (Count)
system.switch_cpus.mmu.l2_shared.hits               0                       # Total TLB (inst and data) hits (Count)
system.switch_cpus.mmu.l2_shared.misses             0                       # Total TLB (inst and data) misses (Count)
system.switch_cpus.mmu.l2_shared.accesses            0                       # Total TLB (inst and data) accesses (Count)
system.switch_cpus.mmu.stage2_dtb.readHits            0                       # Read hits (Count)
system.switch_cpus.mmu.stage2_dtb.readMisses            0                       # Read misses (Count)
system.switch_cpus.mmu.stage2_dtb.writeHits            0                       # Write hits (Count)
system.switch_cpus.mmu.stage2_dtb.writeMisses            0                       # Write misses (Count)
system.switch_cpus.mmu.stage2_dtb.inserts            0                       # Number of times an entry is inserted into the TLB (Count)
system.switch_cpus.mmu.stage2_dtb.flushTlb            0                       # Number of times a TLB invalidation was requested (Count)
system.switch_cpus.mmu.stage2_dtb.flushedEntries            0                       # Number of entries that have been flushed from TLB (Count)
system.switch_cpus.mmu.stage2_dtb.readAccesses            0                       # Read accesses (Count)
system.switch_cpus.mmu.stage2_dtb.writeAccesses            0                       # Write accesses (Count)
system.switch_cpus.mmu.stage2_dtb.hits              0                       # Total TLB (inst and data) hits (Count)
system.switch_cpus.mmu.stage2_dtb.misses            0                       # Total TLB (inst and data) misses (Count)
system.switch_cpus.mmu.stage2_dtb.accesses            0                       # Total TLB (inst and data) accesses (Count)
system.switch_cpus.mmu.stage2_dtb_walker.walks            0                       # Table walker walks requested (Count)
system.switch_cpus.mmu.stage2_dtb_walker.requestOrigin_Requested::Data            0                       # Table walker requests started/completed, data/inst (Count)
system.switch_cpus.mmu.stage2_dtb_walker.requestOrigin_Requested::Inst            0                       # Table walker requests started/completed, data/inst (Count)
system.switch_cpus.mmu.stage2_dtb_walker.requestOrigin_Requested::total            0                       # Table walker requests started/completed, data/inst (Count)
system.switch_cpus.mmu.stage2_dtb_walker.requestOrigin_Completed::Data            0                       # Table walker requests started/completed, data/inst (Count)
system.switch_cpus.mmu.stage2_dtb_walker.requestOrigin_Completed::Inst            0                       # Table walker requests started/completed, data/inst (Count)
system.switch_cpus.mmu.stage2_dtb_walker.requestOrigin_Completed::total            0                       # Table walker requests started/completed, data/inst (Count)
system.switch_cpus.mmu.stage2_dtb_walker.requestOrigin::total            0                       # Table walker requests started/completed, data/inst (Count)
system.switch_cpus.mmu.stage2_dtb_walker.power_state.pwrStateResidencyTicks::UNDEFINED  24975772000                       # Cumulative time (in ticks) in various power states (Tick)
system.switch_cpus.mmu.stage2_itb.instHits            0                       # Inst hits (Count)
system.switch_cpus.mmu.stage2_itb.instMisses            0                       # Inst misses (Count)
system.switch_cpus.mmu.stage2_itb.inserts            0                       # Number of times an entry is inserted into the TLB (Count)
system.switch_cpus.mmu.stage2_itb.flushTlb            0                       # Number of times a TLB invalidation was requested (Count)
system.switch_cpus.mmu.stage2_itb.flushedEntries            0                       # Number of entries that have been flushed from TLB (Count)
system.switch_cpus.mmu.stage2_itb.instAccesses            0                       # Inst accesses (Count)
system.switch_cpus.mmu.stage2_itb.hits              0                       # Total TLB (inst and data) hits (Count)
system.switch_cpus.mmu.stage2_itb.misses            0                       # Total TLB (inst and data) misses (Count)
system.switch_cpus.mmu.stage2_itb.accesses            0                       # Total TLB (inst and data) accesses (Count)
system.switch_cpus.mmu.stage2_itb_walker.walks            0                       # Table walker walks requested (Count)
system.switch_cpus.mmu.stage2_itb_walker.requestOrigin_Requested::Data            0                       # Table walker requests started/completed, data/inst (Count)
system.switch_cpus.mmu.stage2_itb_walker.requestOrigin_Requested::Inst            0                       # Table walker requests started/completed, data/inst (Count)
system.switch_cpus.mmu.stage2_itb_walker.requestOrigin_Requested::total            0                       # Table walker requests started/completed, data/inst (Count)
system.switch_cpus.mmu.stage2_itb_walker.requestOrigin_Completed::Data            0                       # Table walker requests started/completed, data/inst (Count)
system.switch_cpus.mmu.stage2_itb_walker.requestOrigin_Completed::Inst            0                       # Table walker requests started/completed, data/inst (Count)
system.switch_cpus.mmu.stage2_itb_walker.requestOrigin_Completed::total            0                       # Table walker requests started/completed, data/inst (Count)
system.switch_cpus.mmu.stage2_itb_walker.requestOrigin::total            0                       # Table walker requests started/completed, data/inst (Count)
system.switch_cpus.mmu.stage2_itb_walker.power_state.pwrStateResidencyTicks::UNDEFINED  24975772000                       # Cumulative time (in ticks) in various power states (Tick)
system.switch_cpus.power_state.pwrStateResidencyTicks::OFF  24975772000                       # Cumulative time (in ticks) in various power states (Tick)
system.switch_cpus.rename.squashCycles         961463                       # Number of cycles rename is squashing (Cycle)
system.switch_cpus.rename.idleCycles         21730833                       # Number of cycles rename is idle (Cycle)
system.switch_cpus.rename.blockCycles         1791313                       # Number of cycles rename is blocking (Cycle)
system.switch_cpus.rename.serializeStallCycles       505935                       # count of cycles rename stalled for serializing inst (Cycle)
system.switch_cpus.rename.runCycles          24819976                       # Number of cycles rename is running (Cycle)
system.switch_cpus.rename.unblockCycles         30649                       # Number of cycles rename is unblocking (Cycle)
system.switch_cpus.rename.renamedInsts      147130838                       # Number of instructions processed by rename (Count)
system.switch_cpus.rename.ROBFullEvents            27                       # Number of times rename has blocked due to ROB full (Count)
system.switch_cpus.rename.IQFullEvents             85                       # Number of times rename has blocked due to IQ full (Count)
system.switch_cpus.rename.SQFullEvents             11                       # Number of times rename has blocked due to SQ full (Count)
system.switch_cpus.rename.renamedOperands    141930574                       # Number of destination operands rename has renamed (Count)
system.switch_cpus.rename.lookups           207450181                       # Number of register rename lookups that rename has made (Count)
system.switch_cpus.rename.intLookups        155552477                       # Number of integer rename lookups (Count)
system.switch_cpus.rename.vecLookups           848699                       # Number of vector rename lookups (Count)
system.switch_cpus.rename.vecPredLookups       204672                       # Number of vector predicate rename lookups (Count)
system.switch_cpus.rename.committedMaps     113052246                       # Number of HB maps that are committed (Count)
system.switch_cpus.rename.undoneMaps         28878308                       # Number of HB maps that are undone due to squashing (Count)
system.switch_cpus.rename.serializing           48835                       # count of serializing insts renamed (Count)
system.switch_cpus.rename.tempSerializing          582                       # count of temporary serializing insts renamed (Count)
system.switch_cpus.rename.skidInsts            365202                       # count of insts added to the skid buffer (Count)
system.switch_cpus.rob.reads                185459302                       # The number of ROB reads (Count)
system.switch_cpus.rob.writes               285328081                       # The number of ROB writes (Count)
system.switch_cpus.rob.squashedLoads          5970452                       # The number of load instructions squashed (Count)
system.switch_cpus.rob.squashedRMWLoads             0                       # The number of read-modify-write load instructions squashed (Count)
system.switch_cpus.rob.squashedRMWALoads            0                       # The number of atomic read-modify-write load instructions squashed (Count)
system.switch_cpus.rob.squashedStores         5139642                       # The number of store instructions squashed (Count)
system.switch_cpus.rob.squashedRMWStores            0                       # The number of read-modify-write store instructions squashed (Count)
system.switch_cpus.rob.squashedRMWAStores            0                       # The number of atomic read-modify-write store instructions squashed (Count)
system.switch_cpus.thread_0.numInsts        100000005                       # Number of Instructions committed (Count)
system.switch_cpus.thread_0.numOps          115418654                       # Number of Ops committed (Count)
system.switch_cpus.thread_0.numMemRefs              0                       # Number of Memory References (Count)
system.tol2bus.transDist::ReadResp             118147                       # Transaction distribution (Count)
system.tol2bus.transDist::WritebackDirty        10514                       # Transaction distribution (Count)
system.tol2bus.transDist::WritebackClean        72281                       # Transaction distribution (Count)
system.tol2bus.transDist::CleanEvict            37576                       # Transaction distribution (Count)
system.tol2bus.transDist::UpgradeReq              481                       # Transaction distribution (Count)
system.tol2bus.transDist::UpgradeResp             481                       # Transaction distribution (Count)
system.tol2bus.transDist::ReadExReq              4188                       # Transaction distribution (Count)
system.tol2bus.transDist::ReadExResp             4188                       # Transaction distribution (Count)
system.tol2bus.transDist::ReadCleanReq          72861                       # Transaction distribution (Count)
system.tol2bus.transDist::ReadSharedReq         45286                       # Transaction distribution (Count)
system.tol2bus.transDist::InvalidateReq            30                       # Transaction distribution (Count)
system.tol2bus.transDist::InvalidateResp           30                       # Transaction distribution (Count)
system.tol2bus.pktCount_system.cpu.icache.mem_side_port::system.l2.cpu_side_port       217522                       # Packet count per connected requestor and responder (Count)
system.tol2bus.pktCount_system.cpu.dcache.mem_side_port::system.l2.cpu_side_port       148060                       # Packet count per connected requestor and responder (Count)
system.tol2bus.pktCount::total                 365582                       # Packet count per connected requestor and responder (Count)
system.tol2bus.pktSize_system.cpu.icache.mem_side_port::system.l2.cpu_side_port      9258304                       # Cumulative packet size per connected requestor and responder (Byte)
system.tol2bus.pktSize_system.cpu.dcache.mem_side_port::system.l2.cpu_side_port      3839232                       # Cumulative packet size per connected requestor and responder (Byte)
system.tol2bus.pktSize::total                13097536                       # Cumulative packet size per connected requestor and responder (Byte)
system.tol2bus.snoops                             481                       # Total snoops (Count)
system.tol2bus.snoopTraffic                     30784                       # Total snoop traffic (Byte)
system.tol2bus.snoopFanout::samples            122846                       # Request fanout histogram (Count)
system.tol2bus.snoopFanout::mean             0.015605                       # Request fanout histogram (Count)
system.tol2bus.snoopFanout::stdev            0.123942                       # Request fanout histogram (Count)
system.tol2bus.snoopFanout::underflows              0      0.00%      0.00% # Request fanout histogram (Count)
system.tol2bus.snoopFanout::0                  120929     98.44%     98.44% # Request fanout histogram (Count)
system.tol2bus.snoopFanout::1                    1917      1.56%    100.00% # Request fanout histogram (Count)
system.tol2bus.snoopFanout::2                       0      0.00%    100.00% # Request fanout histogram (Count)
system.tol2bus.snoopFanout::overflows               0      0.00%    100.00% # Request fanout histogram (Count)
system.tol2bus.snoopFanout::min_value               0                       # Request fanout histogram (Count)
system.tol2bus.snoopFanout::max_value               1                       # Request fanout histogram (Count)
system.tol2bus.snoopFanout::total              122846                       # Request fanout histogram (Count)
system.tol2bus.power_state.pwrStateResidencyTicks::UNDEFINED  24975772000                       # Cumulative time (in ticks) in various power states (Tick)
system.tol2bus.reqLayer0.occupancy          204413480                       # Layer occupancy (ticks) (Tick)
system.tol2bus.reqLayer0.utilization              0.0                       # Layer utilization (Ratio)
system.tol2bus.respLayer0.occupancy         109292997                       # Layer occupancy (ticks) (Tick)
system.tol2bus.respLayer0.utilization             0.0                       # Layer utilization (Ratio)
system.tol2bus.respLayer1.occupancy          74476480                       # Layer occupancy (ticks) (Tick)
system.tol2bus.respLayer1.utilization             0.0                       # Layer utilization (Ratio)
system.tol2bus.snoop_filter.totRequests        243217                       # Total number of requests made to the snoop filter. (Count)
system.tol2bus.snoop_filter.hitSingleRequests       120366                       # Number of requests hitting in the snoop filter with a single holder of the requested data. (Count)
system.tol2bus.snoop_filter.hitMultiRequests         1922                       # Number of requests hitting in the snoop filter with multiple (>1) holders of the requested data. (Count)
system.tol2bus.snoop_filter.totSnoops               0                       # Total number of snoops made to the snoop filter. (Count)
system.tol2bus.snoop_filter.hitSingleSnoops            0                       # Number of snoops hitting in the snoop filter with a single holder of the requested data. (Count)
system.tol2bus.snoop_filter.hitMultiSnoops            0                       # Number of snoops hitting in the snoop filter with multiple (>1) holders of the requested data. (Count)
system.voltage_domain.voltage                       1                       # Voltage in Volts (Volt)
system.workload.inst.arm                            0                       # number of arm instructions executed (Count)
system.workload.inst.quiesce                        0                       # number of quiesce instructions executed (Count)

---------- End Simulation Statistics   ----------
