
---------- Begin Simulation Statistics ----------
simSeconds                                   0.003170                       # Number of seconds simulated (Second)
simTicks                                   3170031500                       # Number of ticks simulated (Tick)
finalTick                                613458179000                       # Number of ticks from beginning of simulation (restored from checkpoints and never reset) (Tick)
simFreq                                  1000000000000                       # The number of ticks per simulated second ((Tick/Second))
hostSeconds                                     18.11                       # Real time elapsed on the host (Second)
hostTickRate                                175015340                       # The number of ticks simulated per host second (ticks/s) ((Tick/Second))
hostMemory                                   52693704                       # Number of bytes of host memory used (Byte)
simInsts                                     10000008                       # Number of instructions simulated (Count)
simOps                                       12413139                       # Number of ops (including micro ops) simulated (Count)
hostInstRate                                   552092                       # Simulator instruction rate (inst/s) ((Count/Second))
hostOpRate                                     685319                       # Simulator op (including micro ops) rate (op/s) ((Count/Second))
system.clk_domain.clock                          1000                       # Clock period in ticks (Tick)
system.cpu.numCycles                               20                       # Number of cpu cycles simulated (Cycle)
system.cpu.cpi                               2.500000                       # CPI: cycles per instruction (core level) ((Cycle/Count))
system.cpu.ipc                               0.400000                       # IPC: instructions per cycle (core level) ((Count/Cycle))
system.cpu.numWorkItemsStarted                      0                       # Number of work items this cpu started (Count)
system.cpu.numWorkItemsCompleted                    0                       # Number of work items this cpu completed (Count)
system.cpu.commitStats0.numInsts                    8                       # Number of instructions committed (thread level) (Count)
system.cpu.commitStats0.numOps                     20                       # Number of ops (including micro ops) committed (thread level) (Count)
system.cpu.commitStats0.numInstsNotNOP              0                       # Number of instructions committed excluding NOPs or prefetches (Count)
system.cpu.commitStats0.numOpsNotNOP                0                       # Number of Ops (including micro ops) Simulated (Count)
system.cpu.commitStats0.cpi                  2.500000                       # CPI: cycles per instruction (thread level) ((Cycle/Count))
system.cpu.commitStats0.ipc                  0.400000                       # IPC: instructions per cycle (thread level) ((Count/Cycle))
system.cpu.commitStats0.numMemRefs                  0                       # Number of memory references committed (Count)
system.cpu.commitStats0.numFpInsts                  0                       # Number of float instructions (Count)
system.cpu.commitStats0.numIntInsts                20                       # Number of integer instructions (Count)
system.cpu.commitStats0.numLoadInsts                0                       # Number of load instructions (Count)
system.cpu.commitStats0.numRMWLoadInsts             0                       # Number of read-modify-write load instructions executed (Count)
system.cpu.commitStats0.numRMWALoadInsts            0                       # Number of atomic read-modify-write load instructions executed (Count)
system.cpu.commitStats0.numStoreInsts              12                       # Number of store instructions (Count)
system.cpu.commitStats0.numRMWStoreInsts            0                       # Number of read-modify-write store instructions executed (Count)
system.cpu.commitStats0.numRMWAStoreInsts            0                       # Number of atomic read-modify-write store instructions executed (Count)
system.cpu.commitStats0.numVecInsts                 0                       # Number of vector instructions (Count)
system.cpu.commitStats0.committedInstType::No_OpClass            0      0.00%      0.00% # Class of committed instruction. (Count)
system.cpu.commitStats0.committedInstType::IntAlu            8     40.00%     40.00% # Class of committed instruction. (Count)
system.cpu.commitStats0.committedInstType::IntMult            0      0.00%     40.00% # Class of committed instruction. (Count)
system.cpu.commitStats0.committedInstType::IntDiv            0      0.00%     40.00% # Class of committed instruction. (Count)
system.cpu.commitStats0.committedInstType::FloatAdd            0      0.00%     40.00% # Class of committed instruction. (Count)
system.cpu.commitStats0.committedInstType::FloatCmp            0      0.00%     40.00% # Class of committed instruction. (Count)
system.cpu.commitStats0.committedInstType::FloatCvt            0      0.00%     40.00% # Class of committed instruction. (Count)
system.cpu.commitStats0.committedInstType::FloatMult            0      0.00%     40.00% # Class of committed instruction. (Count)
system.cpu.commitStats0.committedInstType::FloatMultAcc            0      0.00%     40.00% # Class of committed instruction. (Count)
system.cpu.commitStats0.committedInstType::FloatDiv            0      0.00%     40.00% # Class of committed instruction. (Count)
system.cpu.commitStats0.committedInstType::FloatMisc            0      0.00%     40.00% # Class of committed instruction. (Count)
system.cpu.commitStats0.committedInstType::FloatSqrt            0      0.00%     40.00% # Class of committed instruction. (Count)
system.cpu.commitStats0.committedInstType::SimdAdd            0      0.00%     40.00% # Class of committed instruction. (Count)
system.cpu.commitStats0.committedInstType::SimdAddAcc            0      0.00%     40.00% # Class of committed instruction. (Count)
system.cpu.commitStats0.committedInstType::SimdAlu            0      0.00%     40.00% # Class of committed instruction. (Count)
system.cpu.commitStats0.committedInstType::SimdCmp            0      0.00%     40.00% # Class of committed instruction. (Count)
system.cpu.commitStats0.committedInstType::SimdCvt            0      0.00%     40.00% # Class of committed instruction. (Count)
system.cpu.commitStats0.committedInstType::SimdMisc            0      0.00%     40.00% # Class of committed instruction. (Count)
system.cpu.commitStats0.committedInstType::SimdMult            0      0.00%     40.00% # Class of committed instruction. (Count)
system.cpu.commitStats0.committedInstType::SimdMultAcc            0      0.00%     40.00% # Class of committed instruction. (Count)
system.cpu.commitStats0.committedInstType::SimdMatMultAcc            0      0.00%     40.00% # Class of committed instruction. (Count)
system.cpu.commitStats0.committedInstType::SimdShift            0      0.00%     40.00% # Class of committed instruction. (Count)
system.cpu.commitStats0.committedInstType::SimdShiftAcc            0      0.00%     40.00% # Class of committed instruction. (Count)
system.cpu.commitStats0.committedInstType::SimdDiv            0      0.00%     40.00% # Class of committed instruction. (Count)
system.cpu.commitStats0.committedInstType::SimdSqrt            0      0.00%     40.00% # Class of committed instruction. (Count)
system.cpu.commitStats0.committedInstType::SimdFloatAdd            0      0.00%     40.00% # Class of committed instruction. (Count)
system.cpu.commitStats0.committedInstType::SimdFloatAlu            0      0.00%     40.00% # Class of committed instruction. (Count)
system.cpu.commitStats0.committedInstType::SimdFloatCmp            0      0.00%     40.00% # Class of committed instruction. (Count)
system.cpu.commitStats0.committedInstType::SimdFloatCvt            0      0.00%     40.00% # Class of committed instruction. (Count)
system.cpu.commitStats0.committedInstType::SimdFloatDiv            0      0.00%     40.00% # Class of committed instruction. (Count)
system.cpu.commitStats0.committedInstType::SimdFloatMisc            0      0.00%     40.00% # Class of committed instruction. (Count)
system.cpu.commitStats0.committedInstType::SimdFloatMult            0      0.00%     40.00% # Class of committed instruction. (Count)
system.cpu.commitStats0.committedInstType::SimdFloatMultAcc            0      0.00%     40.00% # Class of committed instruction. (Count)
system.cpu.commitStats0.committedInstType::SimdFloatMatMultAcc            0      0.00%     40.00% # Class of committed instruction. (Count)
system.cpu.commitStats0.committedInstType::SimdFloatSqrt            0      0.00%     40.00% # Class of committed instruction. (Count)
system.cpu.commitStats0.committedInstType::SimdReduceAdd            0      0.00%     40.00% # Class of committed instruction. (Count)
system.cpu.commitStats0.committedInstType::SimdReduceAlu            0      0.00%     40.00% # Class of committed instruction. (Count)
system.cpu.commitStats0.committedInstType::SimdReduceCmp            0      0.00%     40.00% # Class of committed instruction. (Count)
system.cpu.commitStats0.committedInstType::SimdFloatReduceAdd            0      0.00%     40.00% # Class of committed instruction. (Count)
system.cpu.commitStats0.committedInstType::SimdFloatReduceCmp            0      0.00%     40.00% # Class of committed instruction. (Count)
system.cpu.commitStats0.committedInstType::SimdAes            0      0.00%     40.00% # Class of committed instruction. (Count)
system.cpu.commitStats0.committedInstType::SimdAesMix            0      0.00%     40.00% # Class of committed instruction. (Count)
system.cpu.commitStats0.committedInstType::SimdSha1Hash            0      0.00%     40.00% # Class of committed instruction. (Count)
system.cpu.commitStats0.committedInstType::SimdSha1Hash2            0      0.00%     40.00% # Class of committed instruction. (Count)
system.cpu.commitStats0.committedInstType::SimdSha256Hash            0      0.00%     40.00% # Class of committed instruction. (Count)
system.cpu.commitStats0.committedInstType::SimdSha256Hash2            0      0.00%     40.00% # Class of committed instruction. (Count)
system.cpu.commitStats0.committedInstType::SimdShaSigma2            0      0.00%     40.00% # Class of committed instruction. (Count)
system.cpu.commitStats0.committedInstType::SimdShaSigma3            0      0.00%     40.00% # Class of committed instruction. (Count)
system.cpu.commitStats0.committedInstType::SimdPredAlu            0      0.00%     40.00% # Class of committed instruction. (Count)
system.cpu.commitStats0.committedInstType::Matrix            0      0.00%     40.00% # Class of committed instruction. (Count)
system.cpu.commitStats0.committedInstType::MatrixMov            0      0.00%     40.00% # Class of committed instruction. (Count)
system.cpu.commitStats0.committedInstType::MatrixOP            0      0.00%     40.00% # Class of committed instruction. (Count)
system.cpu.commitStats0.committedInstType::MemRead            0      0.00%     40.00% # Class of committed instruction. (Count)
system.cpu.commitStats0.committedInstType::MemWrite           12     60.00%    100.00% # Class of committed instruction. (Count)
system.cpu.commitStats0.committedInstType::FloatMemRead            0      0.00%    100.00% # Class of committed instruction. (Count)
system.cpu.commitStats0.committedInstType::FloatMemWrite            0      0.00%    100.00% # Class of committed instruction. (Count)
system.cpu.commitStats0.committedInstType::IprAccess            0      0.00%    100.00% # Class of committed instruction. (Count)
system.cpu.commitStats0.committedInstType::InstPrefetch            0      0.00%    100.00% # Class of committed instruction. (Count)
system.cpu.commitStats0.committedInstType::SimdUnitStrideLoad            0      0.00%    100.00% # Class of committed instruction. (Count)
system.cpu.commitStats0.committedInstType::SimdUnitStrideStore            0      0.00%    100.00% # Class of committed instruction. (Count)
system.cpu.commitStats0.committedInstType::SimdUnitStrideMaskLoad            0      0.00%    100.00% # Class of committed instruction. (Count)
system.cpu.commitStats0.committedInstType::SimdUnitStrideMaskStore            0      0.00%    100.00% # Class of committed instruction. (Count)
system.cpu.commitStats0.committedInstType::SimdStridedLoad            0      0.00%    100.00% # Class of committed instruction. (Count)
system.cpu.commitStats0.committedInstType::SimdStridedStore            0      0.00%    100.00% # Class of committed instruction. (Count)
system.cpu.commitStats0.committedInstType::SimdIndexedLoad            0      0.00%    100.00% # Class of committed instruction. (Count)
system.cpu.commitStats0.committedInstType::SimdIndexedStore            0      0.00%    100.00% # Class of committed instruction. (Count)
system.cpu.commitStats0.committedInstType::SimdWholeRegisterLoad            0      0.00%    100.00% # Class of committed instruction. (Count)
system.cpu.commitStats0.committedInstType::SimdWholeRegisterStore            0      0.00%    100.00% # Class of committed instruction. (Count)
system.cpu.commitStats0.committedInstType::SimdUnitStrideFaultOnlyFirstLoad            0      0.00%    100.00% # Class of committed instruction. (Count)
system.cpu.commitStats0.committedInstType::SimdUnitStrideSegmentedLoad            0      0.00%    100.00% # Class of committed instruction. (Count)
system.cpu.commitStats0.committedInstType::SimdUnitStrideSegmentedStore            0      0.00%    100.00% # Class of committed instruction. (Count)
system.cpu.commitStats0.committedInstType::SimdExt            0      0.00%    100.00% # Class of committed instruction. (Count)
system.cpu.commitStats0.committedInstType::SimdFloatExt            0      0.00%    100.00% # Class of committed instruction. (Count)
system.cpu.commitStats0.committedInstType::SimdConfig            0      0.00%    100.00% # Class of committed instruction. (Count)
system.cpu.commitStats0.committedInstType::total           20                       # Class of committed instruction. (Count)
system.cpu.commitStats0.committedControl::IsControl            1                       # Class of control type instructions committed (Count)
system.cpu.commitStats0.committedControl::IsDirectControl            1                       # Class of control type instructions committed (Count)
system.cpu.commitStats0.committedControl::IsUncondControl            1                       # Class of control type instructions committed (Count)
system.cpu.commitStats0.committedControl::IsCall            1                       # Class of control type instructions committed (Count)
system.cpu.dcache.demandHits::cpu.data              9                       # number of demand (read+write) hits (Count)
system.cpu.dcache.demandHits::switch_cpus.data      4541398                       # number of demand (read+write) hits (Count)
system.cpu.dcache.demandHits::total           4541407                       # number of demand (read+write) hits (Count)
system.cpu.dcache.overallHits::cpu.data             9                       # number of overall hits (Count)
system.cpu.dcache.overallHits::switch_cpus.data      4541398                       # number of overall hits (Count)
system.cpu.dcache.overallHits::total          4541407                       # number of overall hits (Count)
system.cpu.dcache.demandMisses::cpu.data            3                       # number of demand (read+write) misses (Count)
system.cpu.dcache.demandMisses::switch_cpus.data        53053                       # number of demand (read+write) misses (Count)
system.cpu.dcache.demandMisses::total           53056                       # number of demand (read+write) misses (Count)
system.cpu.dcache.overallMisses::cpu.data            3                       # number of overall misses (Count)
system.cpu.dcache.overallMisses::switch_cpus.data        53053                       # number of overall misses (Count)
system.cpu.dcache.overallMisses::total          53056                       # number of overall misses (Count)
system.cpu.dcache.demandMissLatency::switch_cpus.data   3362356921                       # number of demand (read+write) miss ticks (Tick)
system.cpu.dcache.demandMissLatency::total   3362356921                       # number of demand (read+write) miss ticks (Tick)
system.cpu.dcache.overallMissLatency::switch_cpus.data   3362356921                       # number of overall miss ticks (Tick)
system.cpu.dcache.overallMissLatency::total   3362356921                       # number of overall miss ticks (Tick)
system.cpu.dcache.demandAccesses::cpu.data           12                       # number of demand (read+write) accesses (Count)
system.cpu.dcache.demandAccesses::switch_cpus.data      4594451                       # number of demand (read+write) accesses (Count)
system.cpu.dcache.demandAccesses::total       4594463                       # number of demand (read+write) accesses (Count)
system.cpu.dcache.overallAccesses::cpu.data           12                       # number of overall (read+write) accesses (Count)
system.cpu.dcache.overallAccesses::switch_cpus.data      4594451                       # number of overall (read+write) accesses (Count)
system.cpu.dcache.overallAccesses::total      4594463                       # number of overall (read+write) accesses (Count)
system.cpu.dcache.demandMissRate::cpu.data     0.250000                       # miss rate for demand accesses (Ratio)
system.cpu.dcache.demandMissRate::switch_cpus.data     0.011547                       # miss rate for demand accesses (Ratio)
system.cpu.dcache.demandMissRate::total      0.011548                       # miss rate for demand accesses (Ratio)
system.cpu.dcache.overallMissRate::cpu.data     0.250000                       # miss rate for overall accesses (Ratio)
system.cpu.dcache.overallMissRate::switch_cpus.data     0.011547                       # miss rate for overall accesses (Ratio)
system.cpu.dcache.overallMissRate::total     0.011548                       # miss rate for overall accesses (Ratio)
system.cpu.dcache.demandAvgMissLatency::switch_cpus.data 63377.319303                       # average overall miss latency in ticks ((Tick/Count))
system.cpu.dcache.demandAvgMissLatency::total 63373.735694                       # average overall miss latency in ticks ((Tick/Count))
system.cpu.dcache.overallAvgMissLatency::switch_cpus.data 63377.319303                       # average overall miss latency ((Tick/Count))
system.cpu.dcache.overallAvgMissLatency::total 63373.735694                       # average overall miss latency ((Tick/Count))
system.cpu.dcache.blockedCycles::no_mshrs        18006                       # number of cycles access was blocked (Cycle)
system.cpu.dcache.blockedCycles::no_targets        36563                       # number of cycles access was blocked (Cycle)
system.cpu.dcache.blockedCauses::no_mshrs          324                       # number of times access was blocked (Count)
system.cpu.dcache.blockedCauses::no_targets          488                       # number of times access was blocked (Count)
system.cpu.dcache.avgBlocked::no_mshrs      55.574074                       # average number of cycles each access was blocked ((Cycle/Count))
system.cpu.dcache.avgBlocked::no_targets    74.924180                       # average number of cycles each access was blocked ((Cycle/Count))
system.cpu.dcache.writebacks::writebacks         2767                       # number of writebacks (Count)
system.cpu.dcache.writebacks::total              2767                       # number of writebacks (Count)
system.cpu.dcache.demandMshrHits::switch_cpus.data        44625                       # number of demand (read+write) MSHR hits (Count)
system.cpu.dcache.demandMshrHits::total         44625                       # number of demand (read+write) MSHR hits (Count)
system.cpu.dcache.overallMshrHits::switch_cpus.data        44625                       # number of overall MSHR hits (Count)
system.cpu.dcache.overallMshrHits::total        44625                       # number of overall MSHR hits (Count)
system.cpu.dcache.demandMshrMisses::switch_cpus.data         8428                       # number of demand (read+write) MSHR misses (Count)
system.cpu.dcache.demandMshrMisses::total         8428                       # number of demand (read+write) MSHR misses (Count)
system.cpu.dcache.overallMshrMisses::switch_cpus.data         8428                       # number of overall MSHR misses (Count)
system.cpu.dcache.overallMshrMisses::total         8428                       # number of overall MSHR misses (Count)
system.cpu.dcache.demandMshrMissLatency::switch_cpus.data    587784486                       # number of demand (read+write) MSHR miss ticks (Tick)
system.cpu.dcache.demandMshrMissLatency::total    587784486                       # number of demand (read+write) MSHR miss ticks (Tick)
system.cpu.dcache.overallMshrMissLatency::switch_cpus.data    587784486                       # number of overall MSHR miss ticks (Tick)
system.cpu.dcache.overallMshrMissLatency::total    587784486                       # number of overall MSHR miss ticks (Tick)
system.cpu.dcache.demandMshrMissRate::switch_cpus.data     0.001834                       # mshr miss ratio for demand accesses (Ratio)
system.cpu.dcache.demandMshrMissRate::total     0.001834                       # mshr miss ratio for demand accesses (Ratio)
system.cpu.dcache.overallMshrMissRate::switch_cpus.data     0.001834                       # mshr miss ratio for overall accesses (Ratio)
system.cpu.dcache.overallMshrMissRate::total     0.001834                       # mshr miss ratio for overall accesses (Ratio)
system.cpu.dcache.demandAvgMshrMissLatency::switch_cpus.data 69741.870669                       # average overall mshr miss latency ((Tick/Count))
system.cpu.dcache.demandAvgMshrMissLatency::total 69741.870669                       # average overall mshr miss latency ((Tick/Count))
system.cpu.dcache.overallAvgMshrMissLatency::switch_cpus.data 69741.870669                       # average overall mshr miss latency ((Tick/Count))
system.cpu.dcache.overallAvgMshrMissLatency::total 69741.870669                       # average overall mshr miss latency ((Tick/Count))
system.cpu.dcache.replacements                   4330                       # number of replacements (Count)
system.cpu.dcache.ReadReq.hits::switch_cpus.data      2516595                       # number of ReadReq hits (Count)
system.cpu.dcache.ReadReq.hits::total         2516595                       # number of ReadReq hits (Count)
system.cpu.dcache.ReadReq.misses::switch_cpus.data        19044                       # number of ReadReq misses (Count)
system.cpu.dcache.ReadReq.misses::total         19044                       # number of ReadReq misses (Count)
system.cpu.dcache.ReadReq.missLatency::switch_cpus.data   1105227500                       # number of ReadReq miss ticks (Tick)
system.cpu.dcache.ReadReq.missLatency::total   1105227500                       # number of ReadReq miss ticks (Tick)
system.cpu.dcache.ReadReq.accesses::switch_cpus.data      2535639                       # number of ReadReq accesses(hits+misses) (Count)
system.cpu.dcache.ReadReq.accesses::total      2535639                       # number of ReadReq accesses(hits+misses) (Count)
system.cpu.dcache.ReadReq.missRate::switch_cpus.data     0.007511                       # miss rate for ReadReq accesses (Ratio)
system.cpu.dcache.ReadReq.missRate::total     0.007511                       # miss rate for ReadReq accesses (Ratio)
system.cpu.dcache.ReadReq.avgMissLatency::switch_cpus.data 58035.470489                       # average ReadReq miss latency ((Tick/Count))
system.cpu.dcache.ReadReq.avgMissLatency::total 58035.470489                       # average ReadReq miss latency ((Tick/Count))
system.cpu.dcache.ReadReq.mshrHits::switch_cpus.data        15126                       # number of ReadReq MSHR hits (Count)
system.cpu.dcache.ReadReq.mshrHits::total        15126                       # number of ReadReq MSHR hits (Count)
system.cpu.dcache.ReadReq.mshrMisses::switch_cpus.data         3918                       # number of ReadReq MSHR misses (Count)
system.cpu.dcache.ReadReq.mshrMisses::total         3918                       # number of ReadReq MSHR misses (Count)
system.cpu.dcache.ReadReq.mshrMissLatency::switch_cpus.data    256844500                       # number of ReadReq MSHR miss ticks (Tick)
system.cpu.dcache.ReadReq.mshrMissLatency::total    256844500                       # number of ReadReq MSHR miss ticks (Tick)
system.cpu.dcache.ReadReq.mshrMissRate::switch_cpus.data     0.001545                       # mshr miss rate for ReadReq accesses (Ratio)
system.cpu.dcache.ReadReq.mshrMissRate::total     0.001545                       # mshr miss rate for ReadReq accesses (Ratio)
system.cpu.dcache.ReadReq.avgMshrMissLatency::switch_cpus.data 65555.002552                       # average ReadReq mshr miss latency ((Tick/Count))
system.cpu.dcache.ReadReq.avgMshrMissLatency::total 65555.002552                       # average ReadReq mshr miss latency ((Tick/Count))
system.cpu.dcache.SwapReq.hits::switch_cpus.data           40                       # number of SwapReq hits (Count)
system.cpu.dcache.SwapReq.hits::total              40                       # number of SwapReq hits (Count)
system.cpu.dcache.SwapReq.accesses::switch_cpus.data           40                       # number of SwapReq accesses(hits+misses) (Count)
system.cpu.dcache.SwapReq.accesses::total           40                       # number of SwapReq accesses(hits+misses) (Count)
system.cpu.dcache.WriteReq.hits::cpu.data            9                       # number of WriteReq hits (Count)
system.cpu.dcache.WriteReq.hits::switch_cpus.data      2024803                       # number of WriteReq hits (Count)
system.cpu.dcache.WriteReq.hits::total        2024812                       # number of WriteReq hits (Count)
system.cpu.dcache.WriteReq.misses::cpu.data            3                       # number of WriteReq misses (Count)
system.cpu.dcache.WriteReq.misses::switch_cpus.data        34009                       # number of WriteReq misses (Count)
system.cpu.dcache.WriteReq.misses::total        34012                       # number of WriteReq misses (Count)
system.cpu.dcache.WriteReq.missLatency::switch_cpus.data   2257129421                       # number of WriteReq miss ticks (Tick)
system.cpu.dcache.WriteReq.missLatency::total   2257129421                       # number of WriteReq miss ticks (Tick)
system.cpu.dcache.WriteReq.accesses::cpu.data           12                       # number of WriteReq accesses(hits+misses) (Count)
system.cpu.dcache.WriteReq.accesses::switch_cpus.data      2058812                       # number of WriteReq accesses(hits+misses) (Count)
system.cpu.dcache.WriteReq.accesses::total      2058824                       # number of WriteReq accesses(hits+misses) (Count)
system.cpu.dcache.WriteReq.missRate::cpu.data     0.250000                       # miss rate for WriteReq accesses (Ratio)
system.cpu.dcache.WriteReq.missRate::switch_cpus.data     0.016519                       # miss rate for WriteReq accesses (Ratio)
system.cpu.dcache.WriteReq.missRate::total     0.016520                       # miss rate for WriteReq accesses (Ratio)
system.cpu.dcache.WriteReq.avgMissLatency::switch_cpus.data 66368.591285                       # average WriteReq miss latency ((Tick/Count))
system.cpu.dcache.WriteReq.avgMissLatency::total 66362.737299                       # average WriteReq miss latency ((Tick/Count))
system.cpu.dcache.WriteReq.mshrHits::switch_cpus.data        29499                       # number of WriteReq MSHR hits (Count)
system.cpu.dcache.WriteReq.mshrHits::total        29499                       # number of WriteReq MSHR hits (Count)
system.cpu.dcache.WriteReq.mshrMisses::switch_cpus.data         4510                       # number of WriteReq MSHR misses (Count)
system.cpu.dcache.WriteReq.mshrMisses::total         4510                       # number of WriteReq MSHR misses (Count)
system.cpu.dcache.WriteReq.mshrMissLatency::switch_cpus.data    330939986                       # number of WriteReq MSHR miss ticks (Tick)
system.cpu.dcache.WriteReq.mshrMissLatency::total    330939986                       # number of WriteReq MSHR miss ticks (Tick)
system.cpu.dcache.WriteReq.mshrMissRate::switch_cpus.data     0.002191                       # mshr miss rate for WriteReq accesses (Ratio)
system.cpu.dcache.WriteReq.mshrMissRate::total     0.002191                       # mshr miss rate for WriteReq accesses (Ratio)
system.cpu.dcache.WriteReq.avgMshrMissLatency::switch_cpus.data 73379.154324                       # average WriteReq mshr miss latency ((Tick/Count))
system.cpu.dcache.WriteReq.avgMshrMissLatency::total 73379.154324                       # average WriteReq mshr miss latency ((Tick/Count))
system.cpu.dcache.power_state.pwrStateResidencyTicks::UNDEFINED 613458179000                       # Cumulative time (in ticks) in various power states (Tick)
system.cpu.dcache.tags.tagsInUse          2920.928378                       # Average ticks per tags in use ((Tick/Count))
system.cpu.dcache.tags.totalRefs              1042752                       # Total number of references to valid blocks. (Count)
system.cpu.dcache.tags.sampledRefs               4330                       # Sample count of references to valid blocks. (Count)
system.cpu.dcache.tags.avgRefs             240.820323                       # Average number of references to valid blocks. ((Count/Count))
system.cpu.dcache.tags.warmupTick        610288149500                       # The tick when the warmup percentage was hit. (Tick)
system.cpu.dcache.tags.occupancies::cpu.data     2.999995                       # Average occupied blocks per tick, per requestor ((Count/Tick))
system.cpu.dcache.tags.occupancies::switch_cpus.data  2917.928383                       # Average occupied blocks per tick, per requestor ((Count/Tick))
system.cpu.dcache.tags.avgOccs::cpu.data     0.000732                       # Average percentage of cache occupancy ((Ratio/Tick))
system.cpu.dcache.tags.avgOccs::switch_cpus.data     0.712385                       # Average percentage of cache occupancy ((Ratio/Tick))
system.cpu.dcache.tags.avgOccs::total        0.713117                       # Average percentage of cache occupancy ((Ratio/Tick))
system.cpu.dcache.tags.occupanciesTaskId::1024         4018                       # Occupied blocks per task id (Count)
system.cpu.dcache.tags.ageTaskId_1024::0           36                       # Occupied blocks per task id, per block age (Count)
system.cpu.dcache.tags.ageTaskId_1024::1          150                       # Occupied blocks per task id, per block age (Count)
system.cpu.dcache.tags.ageTaskId_1024::2         1790                       # Occupied blocks per task id, per block age (Count)
system.cpu.dcache.tags.ageTaskId_1024::3         2042                       # Occupied blocks per task id, per block age (Count)
system.cpu.dcache.tags.ratioOccsTaskId::1024     0.980957                       # Ratio of occupied blocks and all blocks, per task id (Ratio)
system.cpu.dcache.tags.tagAccesses            9197354                       # Number of tag accesses (Count)
system.cpu.dcache.tags.dataAccesses           9197354                       # Number of data accesses (Count)
system.cpu.dcache.tags.power_state.pwrStateResidencyTicks::UNDEFINED 613458179000                       # Cumulative time (in ticks) in various power states (Tick)
system.cpu.exec_context.thread_0.numMatAluAccesses            0                       # Number of matrix alu accesses (Count)
system.cpu.exec_context.thread_0.numCallsReturns            1                       # Number of times a function call or return occured (Count)
system.cpu.exec_context.thread_0.numMatInsts            0                       # Number of matrix instructions (Count)
system.cpu.exec_context.thread_0.numIdleCycles            0                       # Number of idle cycles (Cycle)
system.cpu.exec_context.thread_0.numBusyCycles           20                       # Number of busy cycles (Cycle)
system.cpu.exec_context.thread_0.notIdleFraction            1                       # Percentage of non-idle cycles (Ratio)
system.cpu.exec_context.thread_0.idleFraction            0                       # Percentage of idle cycles (Ratio)
system.cpu.executeStats0.numInsts                   0                       # Number of executed instructions (Count)
system.cpu.executeStats0.numNop                     0                       # Number of nop insts executed (Count)
system.cpu.executeStats0.numBranches                0                       # Number of branches executed (Count)
system.cpu.executeStats0.numLoadInsts               0                       # Number of load instructions executed (Count)
system.cpu.executeStats0.numStoreInsts             12                       # Number of stores executed (Count)
system.cpu.executeStats0.instRate                   0                       # Inst execution rate ((Count/Cycle))
system.cpu.executeStats0.numFpRegWrites             0                       # Number of times the floating registers were written (Count)
system.cpu.executeStats0.numIntAluAccesses           20                       # Number of integer alu accesses (Count)
system.cpu.executeStats0.numIntRegReads            31                       # Number of times the integer registers were read (Count)
system.cpu.executeStats0.numIntRegWrites            8                       # Number of times the integer registers were written (Count)
system.cpu.executeStats0.numMemRefs                12                       # Number of memory refs (Count)
system.cpu.executeStats0.numVecAluAccesses            0                       # Number of vector alu accesses (Count)
system.cpu.executeStats0.numDiscardedOps            0                       # Number of ops (including micro ops) which were discarded before commit (Count)
system.cpu.fetchStats0.numInsts                     8                       # Number of instructions fetched (thread level) (Count)
system.cpu.fetchStats0.numOps                      20                       # Number of ops (including micro ops) fetched (thread level) (Count)
system.cpu.fetchStats0.fetchRate             0.400000                       # Number of inst fetches per cycle ((Count/Cycle))
system.cpu.fetchStats0.numBranches                  1                       # Number of branches fetched (Count)
system.cpu.fetchStats0.branchRate            0.050000                       # Number of branch fetches per cycle (Ratio)
system.cpu.fetchStats0.numFetchSuspends             0                       # Number of times Execute suspended instruction fetching (Count)
system.cpu.icache.demandHits::cpu.inst              5                       # number of demand (read+write) hits (Count)
system.cpu.icache.demandHits::switch_cpus.inst      2391774                       # number of demand (read+write) hits (Count)
system.cpu.icache.demandHits::total           2391779                       # number of demand (read+write) hits (Count)
system.cpu.icache.overallHits::cpu.inst             5                       # number of overall hits (Count)
system.cpu.icache.overallHits::switch_cpus.inst      2391774                       # number of overall hits (Count)
system.cpu.icache.overallHits::total          2391779                       # number of overall hits (Count)
system.cpu.icache.demandMisses::cpu.inst            3                       # number of demand (read+write) misses (Count)
system.cpu.icache.demandMisses::switch_cpus.inst        27827                       # number of demand (read+write) misses (Count)
system.cpu.icache.demandMisses::total           27830                       # number of demand (read+write) misses (Count)
system.cpu.icache.overallMisses::cpu.inst            3                       # number of overall misses (Count)
system.cpu.icache.overallMisses::switch_cpus.inst        27827                       # number of overall misses (Count)
system.cpu.icache.overallMisses::total          27830                       # number of overall misses (Count)
system.cpu.icache.demandMissLatency::switch_cpus.inst    589565498                       # number of demand (read+write) miss ticks (Tick)
system.cpu.icache.demandMissLatency::total    589565498                       # number of demand (read+write) miss ticks (Tick)
system.cpu.icache.overallMissLatency::switch_cpus.inst    589565498                       # number of overall miss ticks (Tick)
system.cpu.icache.overallMissLatency::total    589565498                       # number of overall miss ticks (Tick)
system.cpu.icache.demandAccesses::cpu.inst            8                       # number of demand (read+write) accesses (Count)
system.cpu.icache.demandAccesses::switch_cpus.inst      2419601                       # number of demand (read+write) accesses (Count)
system.cpu.icache.demandAccesses::total       2419609                       # number of demand (read+write) accesses (Count)
system.cpu.icache.overallAccesses::cpu.inst            8                       # number of overall (read+write) accesses (Count)
system.cpu.icache.overallAccesses::switch_cpus.inst      2419601                       # number of overall (read+write) accesses (Count)
system.cpu.icache.overallAccesses::total      2419609                       # number of overall (read+write) accesses (Count)
system.cpu.icache.demandMissRate::cpu.inst     0.375000                       # miss rate for demand accesses (Ratio)
system.cpu.icache.demandMissRate::switch_cpus.inst     0.011501                       # miss rate for demand accesses (Ratio)
system.cpu.icache.demandMissRate::total      0.011502                       # miss rate for demand accesses (Ratio)
system.cpu.icache.overallMissRate::cpu.inst     0.375000                       # miss rate for overall accesses (Ratio)
system.cpu.icache.overallMissRate::switch_cpus.inst     0.011501                       # miss rate for overall accesses (Ratio)
system.cpu.icache.overallMissRate::total     0.011502                       # miss rate for overall accesses (Ratio)
system.cpu.icache.demandAvgMissLatency::switch_cpus.inst 21186.814892                       # average overall miss latency in ticks ((Tick/Count))
system.cpu.icache.demandAvgMissLatency::total 21184.531010                       # average overall miss latency in ticks ((Tick/Count))
system.cpu.icache.overallAvgMissLatency::switch_cpus.inst 21186.814892                       # average overall miss latency ((Tick/Count))
system.cpu.icache.overallAvgMissLatency::total 21184.531010                       # average overall miss latency ((Tick/Count))
system.cpu.icache.blockedCycles::no_mshrs         3210                       # number of cycles access was blocked (Cycle)
system.cpu.icache.blockedCycles::no_targets            0                       # number of cycles access was blocked (Cycle)
system.cpu.icache.blockedCauses::no_mshrs           54                       # number of times access was blocked (Count)
system.cpu.icache.blockedCauses::no_targets            0                       # number of times access was blocked (Count)
system.cpu.icache.avgBlocked::no_mshrs      59.444444                       # average number of cycles each access was blocked ((Cycle/Count))
system.cpu.icache.avgBlocked::no_targets          nan                       # average number of cycles each access was blocked ((Cycle/Count))
system.cpu.icache.writebacks::writebacks        21461                       # number of writebacks (Count)
system.cpu.icache.writebacks::total             21461                       # number of writebacks (Count)
system.cpu.icache.demandMshrHits::switch_cpus.inst         3683                       # number of demand (read+write) MSHR hits (Count)
system.cpu.icache.demandMshrHits::total          3683                       # number of demand (read+write) MSHR hits (Count)
system.cpu.icache.overallMshrHits::switch_cpus.inst         3683                       # number of overall MSHR hits (Count)
system.cpu.icache.overallMshrHits::total         3683                       # number of overall MSHR hits (Count)
system.cpu.icache.demandMshrMisses::switch_cpus.inst        24144                       # number of demand (read+write) MSHR misses (Count)
system.cpu.icache.demandMshrMisses::total        24144                       # number of demand (read+write) MSHR misses (Count)
system.cpu.icache.overallMshrMisses::switch_cpus.inst        24144                       # number of overall MSHR misses (Count)
system.cpu.icache.overallMshrMisses::total        24144                       # number of overall MSHR misses (Count)
system.cpu.icache.demandMshrMissLatency::switch_cpus.inst    488582499                       # number of demand (read+write) MSHR miss ticks (Tick)
system.cpu.icache.demandMshrMissLatency::total    488582499                       # number of demand (read+write) MSHR miss ticks (Tick)
system.cpu.icache.overallMshrMissLatency::switch_cpus.inst    488582499                       # number of overall MSHR miss ticks (Tick)
system.cpu.icache.overallMshrMissLatency::total    488582499                       # number of overall MSHR miss ticks (Tick)
system.cpu.icache.demandMshrMissRate::switch_cpus.inst     0.009979                       # mshr miss ratio for demand accesses (Ratio)
system.cpu.icache.demandMshrMissRate::total     0.009978                       # mshr miss ratio for demand accesses (Ratio)
system.cpu.icache.overallMshrMissRate::switch_cpus.inst     0.009979                       # mshr miss ratio for overall accesses (Ratio)
system.cpu.icache.overallMshrMissRate::total     0.009978                       # mshr miss ratio for overall accesses (Ratio)
system.cpu.icache.demandAvgMshrMissLatency::switch_cpus.inst 20236.187003                       # average overall mshr miss latency ((Tick/Count))
system.cpu.icache.demandAvgMshrMissLatency::total 20236.187003                       # average overall mshr miss latency ((Tick/Count))
system.cpu.icache.overallAvgMshrMissLatency::switch_cpus.inst 20236.187003                       # average overall mshr miss latency ((Tick/Count))
system.cpu.icache.overallAvgMshrMissLatency::total 20236.187003                       # average overall mshr miss latency ((Tick/Count))
system.cpu.icache.replacements                  21461                       # number of replacements (Count)
system.cpu.icache.ReadReq.hits::cpu.inst            5                       # number of ReadReq hits (Count)
system.cpu.icache.ReadReq.hits::switch_cpus.inst      2391774                       # number of ReadReq hits (Count)
system.cpu.icache.ReadReq.hits::total         2391779                       # number of ReadReq hits (Count)
system.cpu.icache.ReadReq.misses::cpu.inst            3                       # number of ReadReq misses (Count)
system.cpu.icache.ReadReq.misses::switch_cpus.inst        27827                       # number of ReadReq misses (Count)
system.cpu.icache.ReadReq.misses::total         27830                       # number of ReadReq misses (Count)
system.cpu.icache.ReadReq.missLatency::switch_cpus.inst    589565498                       # number of ReadReq miss ticks (Tick)
system.cpu.icache.ReadReq.missLatency::total    589565498                       # number of ReadReq miss ticks (Tick)
system.cpu.icache.ReadReq.accesses::cpu.inst            8                       # number of ReadReq accesses(hits+misses) (Count)
system.cpu.icache.ReadReq.accesses::switch_cpus.inst      2419601                       # number of ReadReq accesses(hits+misses) (Count)
system.cpu.icache.ReadReq.accesses::total      2419609                       # number of ReadReq accesses(hits+misses) (Count)
system.cpu.icache.ReadReq.missRate::cpu.inst     0.375000                       # miss rate for ReadReq accesses (Ratio)
system.cpu.icache.ReadReq.missRate::switch_cpus.inst     0.011501                       # miss rate for ReadReq accesses (Ratio)
system.cpu.icache.ReadReq.missRate::total     0.011502                       # miss rate for ReadReq accesses (Ratio)
system.cpu.icache.ReadReq.avgMissLatency::switch_cpus.inst 21186.814892                       # average ReadReq miss latency ((Tick/Count))
system.cpu.icache.ReadReq.avgMissLatency::total 21184.531010                       # average ReadReq miss latency ((Tick/Count))
system.cpu.icache.ReadReq.mshrHits::switch_cpus.inst         3683                       # number of ReadReq MSHR hits (Count)
system.cpu.icache.ReadReq.mshrHits::total         3683                       # number of ReadReq MSHR hits (Count)
system.cpu.icache.ReadReq.mshrMisses::switch_cpus.inst        24144                       # number of ReadReq MSHR misses (Count)
system.cpu.icache.ReadReq.mshrMisses::total        24144                       # number of ReadReq MSHR misses (Count)
system.cpu.icache.ReadReq.mshrMissLatency::switch_cpus.inst    488582499                       # number of ReadReq MSHR miss ticks (Tick)
system.cpu.icache.ReadReq.mshrMissLatency::total    488582499                       # number of ReadReq MSHR miss ticks (Tick)
system.cpu.icache.ReadReq.mshrMissRate::switch_cpus.inst     0.009979                       # mshr miss rate for ReadReq accesses (Ratio)
system.cpu.icache.ReadReq.mshrMissRate::total     0.009978                       # mshr miss rate for ReadReq accesses (Ratio)
system.cpu.icache.ReadReq.avgMshrMissLatency::switch_cpus.inst 20236.187003                       # average ReadReq mshr miss latency ((Tick/Count))
system.cpu.icache.ReadReq.avgMshrMissLatency::total 20236.187003                       # average ReadReq mshr miss latency ((Tick/Count))
system.cpu.icache.power_state.pwrStateResidencyTicks::UNDEFINED 613458179000                       # Cumulative time (in ticks) in various power states (Tick)
system.cpu.icache.tags.tagsInUse          2318.847815                       # Average ticks per tags in use ((Tick/Count))
system.cpu.icache.tags.totalRefs               555703                       # Total number of references to valid blocks. (Count)
system.cpu.icache.tags.sampledRefs              21552                       # Sample count of references to valid blocks. (Count)
system.cpu.icache.tags.avgRefs              25.784289                       # Average number of references to valid blocks. ((Count/Count))
system.cpu.icache.tags.warmupTick        610288148000                       # The tick when the warmup percentage was hit. (Tick)
system.cpu.icache.tags.occupancies::cpu.inst     2.999997                       # Average occupied blocks per tick, per requestor ((Count/Tick))
system.cpu.icache.tags.occupancies::switch_cpus.inst  2315.847818                       # Average occupied blocks per tick, per requestor ((Count/Tick))
system.cpu.icache.tags.avgOccs::cpu.inst     0.000732                       # Average percentage of cache occupancy ((Ratio/Tick))
system.cpu.icache.tags.avgOccs::switch_cpus.inst     0.565393                       # Average percentage of cache occupancy ((Ratio/Tick))
system.cpu.icache.tags.avgOccs::total        0.566125                       # Average percentage of cache occupancy ((Ratio/Tick))
system.cpu.icache.tags.occupanciesTaskId::1024         2595                       # Occupied blocks per task id (Count)
system.cpu.icache.tags.ageTaskId_1024::0           82                       # Occupied blocks per task id, per block age (Count)
system.cpu.icache.tags.ageTaskId_1024::1           96                       # Occupied blocks per task id, per block age (Count)
system.cpu.icache.tags.ageTaskId_1024::2          415                       # Occupied blocks per task id, per block age (Count)
system.cpu.icache.tags.ageTaskId_1024::3         2002                       # Occupied blocks per task id, per block age (Count)
system.cpu.icache.tags.ratioOccsTaskId::1024     0.633545                       # Ratio of occupied blocks and all blocks, per task id (Ratio)
system.cpu.icache.tags.tagAccesses            4863365                       # Number of tag accesses (Count)
system.cpu.icache.tags.dataAccesses           4863365                       # Number of data accesses (Count)
system.cpu.icache.tags.power_state.pwrStateResidencyTicks::UNDEFINED 613458179000                       # Cumulative time (in ticks) in various power states (Tick)
system.cpu.mmu.alignFaults                          0                       # Number of MMU faults due to alignment restrictions (Count)
system.cpu.mmu.prefetchFaults                       0                       # Number of MMU faults due to prefetch (Count)
system.cpu.mmu.domainFaults                         0                       # Number of MMU faults due to domain restrictions (Count)
system.cpu.mmu.permsFaults                          0                       # Number of MMU faults due to permissions restrictions (Count)
system.cpu.mmu.dtb.readHits                         0                       # Read hits (Count)
system.cpu.mmu.dtb.readMisses                       0                       # Read misses (Count)
system.cpu.mmu.dtb.writeHits                        0                       # Write hits (Count)
system.cpu.mmu.dtb.writeMisses                      0                       # Write misses (Count)
system.cpu.mmu.dtb.inserts                          0                       # Number of times an entry is inserted into the TLB (Count)
system.cpu.mmu.dtb.flushTlb                         1                       # Number of times a TLB invalidation was requested (Count)
system.cpu.mmu.dtb.flushedEntries                   0                       # Number of entries that have been flushed from TLB (Count)
system.cpu.mmu.dtb.readAccesses                     0                       # Read accesses (Count)
system.cpu.mmu.dtb.writeAccesses                    0                       # Write accesses (Count)
system.cpu.mmu.dtb.hits                             0                       # Total TLB (inst and data) hits (Count)
system.cpu.mmu.dtb.misses                           0                       # Total TLB (inst and data) misses (Count)
system.cpu.mmu.dtb.accesses                         0                       # Total TLB (inst and data) accesses (Count)
system.cpu.mmu.dtb_walker.walks                     0                       # Table walker walks requested (Count)
system.cpu.mmu.dtb_walker.requestOrigin_Requested::Data            0                       # Table walker requests started/completed, data/inst (Count)
system.cpu.mmu.dtb_walker.requestOrigin_Requested::Inst            0                       # Table walker requests started/completed, data/inst (Count)
system.cpu.mmu.dtb_walker.requestOrigin_Requested::total            0                       # Table walker requests started/completed, data/inst (Count)
system.cpu.mmu.dtb_walker.requestOrigin_Completed::Data            0                       # Table walker requests started/completed, data/inst (Count)
system.cpu.mmu.dtb_walker.requestOrigin_Completed::Inst            0                       # Table walker requests started/completed, data/inst (Count)
system.cpu.mmu.dtb_walker.requestOrigin_Completed::total            0                       # Table walker requests started/completed, data/inst (Count)
system.cpu.mmu.dtb_walker.requestOrigin::total            0                       # Table walker requests started/completed, data/inst (Count)
system.cpu.mmu.dtb_walker.power_state.pwrStateResidencyTicks::UNDEFINED 613458179000                       # Cumulative time (in ticks) in various power states (Tick)
system.cpu.mmu.itb.instHits                         0                       # Inst hits (Count)
system.cpu.mmu.itb.instMisses                       0                       # Inst misses (Count)
system.cpu.mmu.itb.inserts                          0                       # Number of times an entry is inserted into the TLB (Count)
system.cpu.mmu.itb.flushTlb                         1                       # Number of times a TLB invalidation was requested (Count)
system.cpu.mmu.itb.flushedEntries                   0                       # Number of entries that have been flushed from TLB (Count)
system.cpu.mmu.itb.instAccesses                     0                       # Inst accesses (Count)
system.cpu.mmu.itb.hits                             0                       # Total TLB (inst and data) hits (Count)
system.cpu.mmu.itb.misses                           0                       # Total TLB (inst and data) misses (Count)
system.cpu.mmu.itb.accesses                         0                       # Total TLB (inst and data) accesses (Count)
system.cpu.mmu.itb_walker.walks                     0                       # Table walker walks requested (Count)
system.cpu.mmu.itb_walker.requestOrigin_Requested::Data            0                       # Table walker requests started/completed, data/inst (Count)
system.cpu.mmu.itb_walker.requestOrigin_Requested::Inst            0                       # Table walker requests started/completed, data/inst (Count)
system.cpu.mmu.itb_walker.requestOrigin_Requested::total            0                       # Table walker requests started/completed, data/inst (Count)
system.cpu.mmu.itb_walker.requestOrigin_Completed::Data            0                       # Table walker requests started/completed, data/inst (Count)
system.cpu.mmu.itb_walker.requestOrigin_Completed::Inst            0                       # Table walker requests started/completed, data/inst (Count)
system.cpu.mmu.itb_walker.requestOrigin_Completed::total            0                       # Table walker requests started/completed, data/inst (Count)
system.cpu.mmu.itb_walker.requestOrigin::total            0                       # Table walker requests started/completed, data/inst (Count)
system.cpu.mmu.itb_walker.power_state.pwrStateResidencyTicks::UNDEFINED 613458179000                       # Cumulative time (in ticks) in various power states (Tick)
system.cpu.mmu.l2_shared.instHits                   0                       # Inst hits (Count)
system.cpu.mmu.l2_shared.instMisses                 0                       # Inst misses (Count)
system.cpu.mmu.l2_shared.inserts                    0                       # Number of times an entry is inserted into the TLB (Count)
system.cpu.mmu.l2_shared.flushTlb                   1                       # Number of times a TLB invalidation was requested (Count)
system.cpu.mmu.l2_shared.flushedEntries             0                       # Number of entries that have been flushed from TLB (Count)
system.cpu.mmu.l2_shared.instAccesses               0                       # Inst accesses (Count)
system.cpu.mmu.l2_shared.hits                       0                       # Total TLB (inst and data) hits (Count)
system.cpu.mmu.l2_shared.misses                     0                       # Total TLB (inst and data) misses (Count)
system.cpu.mmu.l2_shared.accesses                   0                       # Total TLB (inst and data) accesses (Count)
system.cpu.mmu.stage2_dtb.readHits                  0                       # Read hits (Count)
system.cpu.mmu.stage2_dtb.readMisses                0                       # Read misses (Count)
system.cpu.mmu.stage2_dtb.writeHits                 0                       # Write hits (Count)
system.cpu.mmu.stage2_dtb.writeMisses               0                       # Write misses (Count)
system.cpu.mmu.stage2_dtb.inserts                   0                       # Number of times an entry is inserted into the TLB (Count)
system.cpu.mmu.stage2_dtb.flushTlb                  1                       # Number of times a TLB invalidation was requested (Count)
system.cpu.mmu.stage2_dtb.flushedEntries            0                       # Number of entries that have been flushed from TLB (Count)
system.cpu.mmu.stage2_dtb.readAccesses              0                       # Read accesses (Count)
system.cpu.mmu.stage2_dtb.writeAccesses             0                       # Write accesses (Count)
system.cpu.mmu.stage2_dtb.hits                      0                       # Total TLB (inst and data) hits (Count)
system.cpu.mmu.stage2_dtb.misses                    0                       # Total TLB (inst and data) misses (Count)
system.cpu.mmu.stage2_dtb.accesses                  0                       # Total TLB (inst and data) accesses (Count)
system.cpu.mmu.stage2_dtb_walker.walks              0                       # Table walker walks requested (Count)
system.cpu.mmu.stage2_dtb_walker.requestOrigin_Requested::Data            0                       # Table walker requests started/completed, data/inst (Count)
system.cpu.mmu.stage2_dtb_walker.requestOrigin_Requested::Inst            0                       # Table walker requests started/completed, data/inst (Count)
system.cpu.mmu.stage2_dtb_walker.requestOrigin_Requested::total            0                       # Table walker requests started/completed, data/inst (Count)
system.cpu.mmu.stage2_dtb_walker.requestOrigin_Completed::Data            0                       # Table walker requests started/completed, data/inst (Count)
system.cpu.mmu.stage2_dtb_walker.requestOrigin_Completed::Inst            0                       # Table walker requests started/completed, data/inst (Count)
system.cpu.mmu.stage2_dtb_walker.requestOrigin_Completed::total            0                       # Table walker requests started/completed, data/inst (Count)
system.cpu.mmu.stage2_dtb_walker.requestOrigin::total            0                       # Table walker requests started/completed, data/inst (Count)
system.cpu.mmu.stage2_dtb_walker.power_state.pwrStateResidencyTicks::UNDEFINED 613458179000                       # Cumulative time (in ticks) in various power states (Tick)
system.cpu.mmu.stage2_itb.instHits                  0                       # Inst hits (Count)
system.cpu.mmu.stage2_itb.instMisses                0                       # Inst misses (Count)
system.cpu.mmu.stage2_itb.inserts                   0                       # Number of times an entry is inserted into the TLB (Count)
system.cpu.mmu.stage2_itb.flushTlb                  1                       # Number of times a TLB invalidation was requested (Count)
system.cpu.mmu.stage2_itb.flushedEntries            0                       # Number of entries that have been flushed from TLB (Count)
system.cpu.mmu.stage2_itb.instAccesses              0                       # Inst accesses (Count)
system.cpu.mmu.stage2_itb.hits                      0                       # Total TLB (inst and data) hits (Count)
system.cpu.mmu.stage2_itb.misses                    0                       # Total TLB (inst and data) misses (Count)
system.cpu.mmu.stage2_itb.accesses                  0                       # Total TLB (inst and data) accesses (Count)
system.cpu.mmu.stage2_itb_walker.walks              0                       # Table walker walks requested (Count)
system.cpu.mmu.stage2_itb_walker.requestOrigin_Requested::Data            0                       # Table walker requests started/completed, data/inst (Count)
system.cpu.mmu.stage2_itb_walker.requestOrigin_Requested::Inst            0                       # Table walker requests started/completed, data/inst (Count)
system.cpu.mmu.stage2_itb_walker.requestOrigin_Requested::total            0                       # Table walker requests started/completed, data/inst (Count)
system.cpu.mmu.stage2_itb_walker.requestOrigin_Completed::Data            0                       # Table walker requests started/completed, data/inst (Count)
system.cpu.mmu.stage2_itb_walker.requestOrigin_Completed::Inst            0                       # Table walker requests started/completed, data/inst (Count)
system.cpu.mmu.stage2_itb_walker.requestOrigin_Completed::total            0                       # Table walker requests started/completed, data/inst (Count)
system.cpu.mmu.stage2_itb_walker.requestOrigin::total            0                       # Table walker requests started/completed, data/inst (Count)
system.cpu.mmu.stage2_itb_walker.power_state.pwrStateResidencyTicks::UNDEFINED 613458179000                       # Cumulative time (in ticks) in various power states (Tick)
system.cpu.power_state.numTransitions               1                       # Number of power state transitions (Count)
system.cpu.power_state.pwrStateResidencyTicks::ON 610288157500                       # Cumulative time (in ticks) in various power states (Tick)
system.cpu.power_state.pwrStateResidencyTicks::OFF   3170021500                       # Cumulative time (in ticks) in various power states (Tick)
system.cpu.thread_0.numInsts                        0                       # Number of Instructions committed (Count)
system.cpu.thread_0.numOps                          0                       # Number of Ops committed (Count)
system.cpu.thread_0.numMemRefs                      0                       # Number of Memory References (Count)
system.cpu.workload.numSyscalls                     2                       # Number of system calls (Count)
system.cpu_clk_domain.clock                       500                       # Clock period in ticks (Tick)
system.cpu_voltage_domain.voltage                   1                       # Voltage in Volts (Volt)
system.l2.demandHits::switch_cpus.inst          21107                       # number of demand (read+write) hits (Count)
system.l2.demandHits::switch_cpus.data           1468                       # number of demand (read+write) hits (Count)
system.l2.demandHits::total                     22575                       # number of demand (read+write) hits (Count)
system.l2.overallHits::switch_cpus.inst         21107                       # number of overall hits (Count)
system.l2.overallHits::switch_cpus.data          1468                       # number of overall hits (Count)
system.l2.overallHits::total                    22575                       # number of overall hits (Count)
system.l2.demandMisses::cpu.inst                    3                       # number of demand (read+write) misses (Count)
system.l2.demandMisses::cpu.data                    3                       # number of demand (read+write) misses (Count)
system.l2.demandMisses::switch_cpus.inst         2801                       # number of demand (read+write) misses (Count)
system.l2.demandMisses::switch_cpus.data         6727                       # number of demand (read+write) misses (Count)
system.l2.demandMisses::total                    9534                       # number of demand (read+write) misses (Count)
system.l2.overallMisses::cpu.inst                   3                       # number of overall misses (Count)
system.l2.overallMisses::cpu.data                   3                       # number of overall misses (Count)
system.l2.overallMisses::switch_cpus.inst         2801                       # number of overall misses (Count)
system.l2.overallMisses::switch_cpus.data         6727                       # number of overall misses (Count)
system.l2.overallMisses::total                   9534                       # number of overall misses (Count)
system.l2.demandMissLatency::switch_cpus.inst    228302000                       # number of demand (read+write) miss ticks (Tick)
system.l2.demandMissLatency::switch_cpus.data    554417500                       # number of demand (read+write) miss ticks (Tick)
system.l2.demandMissLatency::total          782719500                       # number of demand (read+write) miss ticks (Tick)
system.l2.overallMissLatency::switch_cpus.inst    228302000                       # number of overall miss ticks (Tick)
system.l2.overallMissLatency::switch_cpus.data    554417500                       # number of overall miss ticks (Tick)
system.l2.overallMissLatency::total         782719500                       # number of overall miss ticks (Tick)
system.l2.demandAccesses::cpu.inst                  3                       # number of demand (read+write) accesses (Count)
system.l2.demandAccesses::cpu.data                  3                       # number of demand (read+write) accesses (Count)
system.l2.demandAccesses::switch_cpus.inst        23908                       # number of demand (read+write) accesses (Count)
system.l2.demandAccesses::switch_cpus.data         8195                       # number of demand (read+write) accesses (Count)
system.l2.demandAccesses::total                 32109                       # number of demand (read+write) accesses (Count)
system.l2.overallAccesses::cpu.inst                 3                       # number of overall (read+write) accesses (Count)
system.l2.overallAccesses::cpu.data                 3                       # number of overall (read+write) accesses (Count)
system.l2.overallAccesses::switch_cpus.inst        23908                       # number of overall (read+write) accesses (Count)
system.l2.overallAccesses::switch_cpus.data         8195                       # number of overall (read+write) accesses (Count)
system.l2.overallAccesses::total                32109                       # number of overall (read+write) accesses (Count)
system.l2.demandMissRate::cpu.inst                  1                       # miss rate for demand accesses (Ratio)
system.l2.demandMissRate::cpu.data                  1                       # miss rate for demand accesses (Ratio)
system.l2.demandMissRate::switch_cpus.inst     0.117157                       # miss rate for demand accesses (Ratio)
system.l2.demandMissRate::switch_cpus.data     0.820866                       # miss rate for demand accesses (Ratio)
system.l2.demandMissRate::total              0.296926                       # miss rate for demand accesses (Ratio)
system.l2.overallMissRate::cpu.inst                 1                       # miss rate for overall accesses (Ratio)
system.l2.overallMissRate::cpu.data                 1                       # miss rate for overall accesses (Ratio)
system.l2.overallMissRate::switch_cpus.inst     0.117157                       # miss rate for overall accesses (Ratio)
system.l2.overallMissRate::switch_cpus.data     0.820866                       # miss rate for overall accesses (Ratio)
system.l2.overallMissRate::total             0.296926                       # miss rate for overall accesses (Ratio)
system.l2.demandAvgMissLatency::switch_cpus.inst 81507.318815                       # average overall miss latency in ticks ((Tick/Count))
system.l2.demandAvgMissLatency::switch_cpus.data 82416.753382                       # average overall miss latency in ticks ((Tick/Count))
system.l2.demandAvgMissLatency::total    82097.702958                       # average overall miss latency in ticks ((Tick/Count))
system.l2.overallAvgMissLatency::switch_cpus.inst 81507.318815                       # average overall miss latency ((Tick/Count))
system.l2.overallAvgMissLatency::switch_cpus.data 82416.753382                       # average overall miss latency ((Tick/Count))
system.l2.overallAvgMissLatency::total   82097.702958                       # average overall miss latency ((Tick/Count))
system.l2.blockedCycles::no_mshrs                   0                       # number of cycles access was blocked (Cycle)
system.l2.blockedCycles::no_targets                 0                       # number of cycles access was blocked (Cycle)
system.l2.blockedCauses::no_mshrs                   0                       # number of times access was blocked (Count)
system.l2.blockedCauses::no_targets                 0                       # number of times access was blocked (Count)
system.l2.avgBlocked::no_mshrs                    nan                       # average number of cycles each access was blocked ((Cycle/Count))
system.l2.avgBlocked::no_targets                  nan                       # average number of cycles each access was blocked ((Cycle/Count))
system.l2.demandMshrHits::switch_cpus.inst            1                       # number of demand (read+write) MSHR hits (Count)
system.l2.demandMshrHits::total                     1                       # number of demand (read+write) MSHR hits (Count)
system.l2.overallMshrHits::switch_cpus.inst            1                       # number of overall MSHR hits (Count)
system.l2.overallMshrHits::total                    1                       # number of overall MSHR hits (Count)
system.l2.demandMshrMisses::switch_cpus.inst         2800                       # number of demand (read+write) MSHR misses (Count)
system.l2.demandMshrMisses::switch_cpus.data         6727                       # number of demand (read+write) MSHR misses (Count)
system.l2.demandMshrMisses::total                9527                       # number of demand (read+write) MSHR misses (Count)
system.l2.overallMshrMisses::switch_cpus.inst         2800                       # number of overall MSHR misses (Count)
system.l2.overallMshrMisses::switch_cpus.data         6727                       # number of overall MSHR misses (Count)
system.l2.overallMshrMisses::total               9527                       # number of overall MSHR misses (Count)
system.l2.demandMshrMissLatency::switch_cpus.inst    200245000                       # number of demand (read+write) MSHR miss ticks (Tick)
system.l2.demandMshrMissLatency::switch_cpus.data    487147500                       # number of demand (read+write) MSHR miss ticks (Tick)
system.l2.demandMshrMissLatency::total      687392500                       # number of demand (read+write) MSHR miss ticks (Tick)
system.l2.overallMshrMissLatency::switch_cpus.inst    200245000                       # number of overall MSHR miss ticks (Tick)
system.l2.overallMshrMissLatency::switch_cpus.data    487147500                       # number of overall MSHR miss ticks (Tick)
system.l2.overallMshrMissLatency::total     687392500                       # number of overall MSHR miss ticks (Tick)
system.l2.demandMshrMissRate::switch_cpus.inst     0.117116                       # mshr miss ratio for demand accesses (Ratio)
system.l2.demandMshrMissRate::switch_cpus.data     0.820866                       # mshr miss ratio for demand accesses (Ratio)
system.l2.demandMshrMissRate::total          0.296708                       # mshr miss ratio for demand accesses (Ratio)
system.l2.overallMshrMissRate::switch_cpus.inst     0.117116                       # mshr miss ratio for overall accesses (Ratio)
system.l2.overallMshrMissRate::switch_cpus.data     0.820866                       # mshr miss ratio for overall accesses (Ratio)
system.l2.overallMshrMissRate::total         0.296708                       # mshr miss ratio for overall accesses (Ratio)
system.l2.demandAvgMshrMissLatency::switch_cpus.inst 71516.071429                       # average overall mshr miss latency ((Tick/Count))
system.l2.demandAvgMshrMissLatency::switch_cpus.data 72416.753382                       # average overall mshr miss latency ((Tick/Count))
system.l2.demandAvgMshrMissLatency::total 72152.041566                       # average overall mshr miss latency ((Tick/Count))
system.l2.overallAvgMshrMissLatency::switch_cpus.inst 71516.071429                       # average overall mshr miss latency ((Tick/Count))
system.l2.overallAvgMshrMissLatency::switch_cpus.data 72416.753382                       # average overall mshr miss latency ((Tick/Count))
system.l2.overallAvgMshrMissLatency::total 72152.041566                       # average overall mshr miss latency ((Tick/Count))
system.l2.replacements                              0                       # number of replacements (Count)
system.l2.InvalidateReq.hits::switch_cpus.data           22                       # number of InvalidateReq hits (Count)
system.l2.InvalidateReq.hits::total                22                       # number of InvalidateReq hits (Count)
system.l2.InvalidateReq.misses::switch_cpus.data          130                       # number of InvalidateReq misses (Count)
system.l2.InvalidateReq.misses::total             130                       # number of InvalidateReq misses (Count)
system.l2.InvalidateReq.accesses::switch_cpus.data          152                       # number of InvalidateReq accesses(hits+misses) (Count)
system.l2.InvalidateReq.accesses::total           152                       # number of InvalidateReq accesses(hits+misses) (Count)
system.l2.InvalidateReq.missRate::switch_cpus.data     0.855263                       # miss rate for InvalidateReq accesses (Ratio)
system.l2.InvalidateReq.missRate::total      0.855263                       # miss rate for InvalidateReq accesses (Ratio)
system.l2.InvalidateReq.mshrMisses::switch_cpus.data          130                       # number of InvalidateReq MSHR misses (Count)
system.l2.InvalidateReq.mshrMisses::total          130                       # number of InvalidateReq MSHR misses (Count)
system.l2.InvalidateReq.mshrMissLatency::switch_cpus.data      2467000                       # number of InvalidateReq MSHR miss ticks (Tick)
system.l2.InvalidateReq.mshrMissLatency::total      2467000                       # number of InvalidateReq MSHR miss ticks (Tick)
system.l2.InvalidateReq.mshrMissRate::switch_cpus.data     0.855263                       # mshr miss rate for InvalidateReq accesses (Ratio)
system.l2.InvalidateReq.mshrMissRate::total     0.855263                       # mshr miss rate for InvalidateReq accesses (Ratio)
system.l2.InvalidateReq.avgMshrMissLatency::switch_cpus.data 18976.923077                       # average InvalidateReq mshr miss latency ((Tick/Count))
system.l2.InvalidateReq.avgMshrMissLatency::total 18976.923077                       # average InvalidateReq mshr miss latency ((Tick/Count))
system.l2.ReadCleanReq.hits::switch_cpus.inst        21107                       # number of ReadCleanReq hits (Count)
system.l2.ReadCleanReq.hits::total              21107                       # number of ReadCleanReq hits (Count)
system.l2.ReadCleanReq.misses::cpu.inst             3                       # number of ReadCleanReq misses (Count)
system.l2.ReadCleanReq.misses::switch_cpus.inst         2801                       # number of ReadCleanReq misses (Count)
system.l2.ReadCleanReq.misses::total             2804                       # number of ReadCleanReq misses (Count)
system.l2.ReadCleanReq.missLatency::switch_cpus.inst    228302000                       # number of ReadCleanReq miss ticks (Tick)
system.l2.ReadCleanReq.missLatency::total    228302000                       # number of ReadCleanReq miss ticks (Tick)
system.l2.ReadCleanReq.accesses::cpu.inst            3                       # number of ReadCleanReq accesses(hits+misses) (Count)
system.l2.ReadCleanReq.accesses::switch_cpus.inst        23908                       # number of ReadCleanReq accesses(hits+misses) (Count)
system.l2.ReadCleanReq.accesses::total          23911                       # number of ReadCleanReq accesses(hits+misses) (Count)
system.l2.ReadCleanReq.missRate::cpu.inst            1                       # miss rate for ReadCleanReq accesses (Ratio)
system.l2.ReadCleanReq.missRate::switch_cpus.inst     0.117157                       # miss rate for ReadCleanReq accesses (Ratio)
system.l2.ReadCleanReq.missRate::total       0.117268                       # miss rate for ReadCleanReq accesses (Ratio)
system.l2.ReadCleanReq.avgMissLatency::switch_cpus.inst 81507.318815                       # average ReadCleanReq miss latency ((Tick/Count))
system.l2.ReadCleanReq.avgMissLatency::total 81420.114123                       # average ReadCleanReq miss latency ((Tick/Count))
system.l2.ReadCleanReq.mshrHits::switch_cpus.inst            1                       # number of ReadCleanReq MSHR hits (Count)
system.l2.ReadCleanReq.mshrHits::total              1                       # number of ReadCleanReq MSHR hits (Count)
system.l2.ReadCleanReq.mshrMisses::switch_cpus.inst         2800                       # number of ReadCleanReq MSHR misses (Count)
system.l2.ReadCleanReq.mshrMisses::total         2800                       # number of ReadCleanReq MSHR misses (Count)
system.l2.ReadCleanReq.mshrMissLatency::switch_cpus.inst    200245000                       # number of ReadCleanReq MSHR miss ticks (Tick)
system.l2.ReadCleanReq.mshrMissLatency::total    200245000                       # number of ReadCleanReq MSHR miss ticks (Tick)
system.l2.ReadCleanReq.mshrMissRate::switch_cpus.inst     0.117116                       # mshr miss rate for ReadCleanReq accesses (Ratio)
system.l2.ReadCleanReq.mshrMissRate::total     0.117101                       # mshr miss rate for ReadCleanReq accesses (Ratio)
system.l2.ReadCleanReq.avgMshrMissLatency::switch_cpus.inst 71516.071429                       # average ReadCleanReq mshr miss latency ((Tick/Count))
system.l2.ReadCleanReq.avgMshrMissLatency::total 71516.071429                       # average ReadCleanReq mshr miss latency ((Tick/Count))
system.l2.ReadExReq.hits::switch_cpus.data          271                       # number of ReadExReq hits (Count)
system.l2.ReadExReq.hits::total                   271                       # number of ReadExReq hits (Count)
system.l2.ReadExReq.misses::cpu.data                3                       # number of ReadExReq misses (Count)
system.l2.ReadExReq.misses::switch_cpus.data         4006                       # number of ReadExReq misses (Count)
system.l2.ReadExReq.misses::total                4009                       # number of ReadExReq misses (Count)
system.l2.ReadExReq.missLatency::switch_cpus.data    316283500                       # number of ReadExReq miss ticks (Tick)
system.l2.ReadExReq.missLatency::total      316283500                       # number of ReadExReq miss ticks (Tick)
system.l2.ReadExReq.accesses::cpu.data              3                       # number of ReadExReq accesses(hits+misses) (Count)
system.l2.ReadExReq.accesses::switch_cpus.data         4277                       # number of ReadExReq accesses(hits+misses) (Count)
system.l2.ReadExReq.accesses::total              4280                       # number of ReadExReq accesses(hits+misses) (Count)
system.l2.ReadExReq.missRate::cpu.data              1                       # miss rate for ReadExReq accesses (Ratio)
system.l2.ReadExReq.missRate::switch_cpus.data     0.936638                       # miss rate for ReadExReq accesses (Ratio)
system.l2.ReadExReq.missRate::total          0.936682                       # miss rate for ReadExReq accesses (Ratio)
system.l2.ReadExReq.avgMissLatency::switch_cpus.data 78952.446331                       # average ReadExReq miss latency ((Tick/Count))
system.l2.ReadExReq.avgMissLatency::total 78893.364929                       # average ReadExReq miss latency ((Tick/Count))
system.l2.ReadExReq.mshrMisses::switch_cpus.data         4006                       # number of ReadExReq MSHR misses (Count)
system.l2.ReadExReq.mshrMisses::total            4006                       # number of ReadExReq MSHR misses (Count)
system.l2.ReadExReq.mshrMissLatency::switch_cpus.data    276223500                       # number of ReadExReq MSHR miss ticks (Tick)
system.l2.ReadExReq.mshrMissLatency::total    276223500                       # number of ReadExReq MSHR miss ticks (Tick)
system.l2.ReadExReq.mshrMissRate::switch_cpus.data     0.936638                       # mshr miss rate for ReadExReq accesses (Ratio)
[...]
system.switch_cpus.mmu.dtb_walker.requestOrigin_Completed::Data            0                       # Table walker requests started/completed, data/inst (Count)
system.switch_cpus.mmu.dtb_walker.requestOrigin_Completed::Inst            0                       # Table walker requests started/completed, data/inst (Count)
system.switch_cpus.mmu.dtb_walker.requestOrigin_Completed::total            0                       # Table walker requests started/completed, data/inst (Count)
system.switch_cpus.mmu.dtb_walker.requestOrigin::total            0                       # Table walker requests started/completed, data/inst (Count)
system.switch_cpus.mmu.dtb_walker.power_state.pwrStateResidencyTicks::UNDEFINED  30340418000                       # Cumulative time (in ticks) in various power states (Tick)
system.switch_cpus.mmu.itb.instHits                 0                       # Inst hits (Count)
system.switch_cpus.mmu.itb.instMisses               0                       # Inst misses (Count)
system.switch_cpus.mmu.itb.inserts                  0                       # Number of times an entry is inserted into the TLB (Count)
system.switch_cpus.mmu.itb.flushTlb                 0                       # Number of times a TLB invalidation was requested (Count)
system.switch_cpus.mmu.itb.flushedEntries            0                       # Number of entries that have been flushed from TLB (Count)
system.switch_cpus.mmu.itb.instAccesses             0                       # Inst accesses (Count)
system.switch_cpus.mmu.itb.hits                     0                       # Total TLB (inst and data) hits (Count)
system.switch_cpus.mmu.itb.misses                   0                       # Total TLB (inst and data) misses (Count)
system.switch_cpus.mmu.itb.accesses                 0                       # Total TLB (inst and data) accesses (Count)
system.switch_cpus.mmu.itb_walker.walks             0                       # Table walker walks requested (Count)
system.switch_cpus.mmu.itb_walker.requestOrigin_Requested::Data            0                       # Table walker requests started/completed, data/inst (Count)
system.switch_cpus.mmu.itb_walker.requestOrigin_Requested::Inst            0                       # Table walker requests started/completed, data/inst (Count)
system.switch_cpus.mmu.itb_walker.requestOrigin_Requested::total            0                       # Table walker requests started/completed, data/inst (Count)
system.switch_cpus.mmu.itb_walker.requestOrigin_Completed::Data            0                       # Table walker requests started/completed, data/inst (Count)
system.switch_cpus.mmu.itb_walker.requestOrigin_Completed::Inst            0                       # Table walker requests started/completed, data/inst (Count)
system.switch_cpus.mmu.itb_walker.requestOrigin_Completed::total            0                       # Table walker requests started/completed, data/inst (Count)
system.switch_cpus.mmu.itb_walker.requestOrigin::total            0                       # Table walker requests started/completed, data/inst (Count)
system.switch_cpus.mmu.itb_walker.power_state.pwrStateResidencyTicks::UNDEFINED  30340418000                       # Cumulative time (in ticks) in various power states (Tick)
system.switch_cpus.mmu.l2_shared.instHits            0                       # Inst hits (Count)
system.switch_cpus.mmu.l2_shared.instMisses            0                       # Inst misses (Count)
system.switch_cpus.mmu.l2_shared.inserts            0                       # Number of times an entry is inserted into the TLB (Count)
system.switch_cpus.mmu.l2_shared.flushTlb            0                       # Number of times a TLB invalidation was requested (Count)
system.switch_cpus.mmu.l2_shared.flushedEntries            0                       # Number of entries that have been flushed from TLB (Count)
system.switch_cpus.mmu.l2_shared.instAccesses            0                       # Inst accesses (Count)
system.switch_cpus.mmu.l2_shared.hits               0                       # Total TLB (inst and data) hits (Count)
system.switch_cpus.mmu.l2_shared.misses             0                       # Total TLB (inst and data) misses (Count)
system.switch_cpus.mmu.l2_shared.accesses            0                       # Total TLB (inst and data) accesses (Count)
system.switch_cpus.mmu.stage2_dtb.readHits            0                       # Read hits (Count)
system.switch_cpus.mmu.stage2_dtb.readMisses            0                       # Read misses (Count)
system.switch_cpus.mmu.stage2_dtb.writeHits            0                       # Write hits (Count)
system.switch_cpus.mmu.stage2_dtb.writeMisses            0                       # Write misses (Count)
system.switch_cpus.mmu.stage2_dtb.inserts            0                       # Number of times an entry is inserted into the TLB (Count)
system.switch_cpus.mmu.stage2_dtb.flushTlb            0                       # Number of times a TLB invalidation was requested (Count)
system.switch_cpus.mmu.stage2_dtb.flushedEntries            0                       # Number of entries that have been flushed from TLB (Count)
system.switch_cpus.mmu.stage2_dtb.readAccesses            0                       # Read accesses (Count)
system.switch_cpus.mmu.stage2_dtb.writeAccesses            0                       # Write accesses (Count)
system.switch_cpus.mmu.stage2_dtb.hits              0                       # Total TLB (inst and data) hits (Count)
system.switch_cpus.mmu.stage2_dtb.misses            0                       # Total TLB (inst and data) misses (Count)
system.switch_cpus.mmu.stage2_dtb.accesses            0                       # Total TLB (inst and data) accesses (Count)
system.switch_cpus.mmu.stage2_dtb_walker.walks            0                       # Table walker walks requested (Count)
system.switch_cpus.mmu.stage2_dtb_walker.requestOrigin_Requested::Data            0                       # Table walker requests started/completed, data/inst (Count)
system.switch_cpus.mmu.stage2_dtb_walker.requestOrigin_Requested::Inst            0                       # Table walker requests started/completed, data/inst (Count)
system.switch_cpus.mmu.stage2_dtb_walker.requestOrigin_Requested::total            0                       # Table walker requests started/completed, data/inst (Count)
system.switch_cpus.mmu.stage2_dtb_walker.requestOrigin_Completed::Data            0                       # Table walker requests started/completed, data/inst (Count)
system.switch_cpus.mmu.stage2_dtb_walker.requestOrigin_Completed::Inst            0                       # Table walker requests started/completed, data/inst (Count)
system.switch_cpus.mmu.stage2_dtb_walker.requestOrigin_Completed::total            0                       # Table walker requests started/completed, data/inst (Count)
system.switch_cpus.mmu.stage2_dtb_walker.requestOrigin::total            0                       # Table walker requests started/completed, data/inst (Count)
system.switch_cpus.mmu.stage2_dtb_walker.power_state.pwrStateResidencyTicks::UNDEFINED  30340418000                       # Cumulative time (in ticks) in various power states (Tick)
system.switch_cpus.mmu.stage2_itb.instHits            0                       # Inst hits (Count)
system.switch_cpus.mmu.stage2_itb.instMisses            0                       # Inst misses (Count)
system.switch_cpus.mmu.stage2_itb.inserts            0                       # Number of times an entry is inserted into the TLB (Count)
system.switch_cpus.mmu.stage2_itb.flushTlb            0                       # Number of times a TLB invalidation was requested (Count)
system.switch_cpus.mmu.stage2_itb.flushedEntries            0                       # Number of entries that have been flushed from TLB (Count)
system.switch_cpus.mmu.stage2_itb.instAccesses            0                       # Inst accesses (Count)
system.switch_cpus.mmu.stage2_itb.hits              0                       # Total TLB (inst and data) hits (Count)
system.switch_cpus.mmu.stage2_itb.misses            0                       # Total TLB (inst and data) misses (Count)
system.switch_cpus.mmu.stage2_itb.accesses            0                       # Total TLB (inst and data) accesses (Count)
system.switch_cpus.mmu.stage2_itb_walker.walks            0                       # Table walker walks requested (Count)
system.switch_cpus.mmu.stage2_itb_walker.requestOrigin_Requested::Data            0                       # Table walker requests started/completed, data/inst (Count)
system.switch_cpus.mmu.stage2_itb_walker.requestOrigin_Requested::Inst            0                       # Table walker requests started/completed, data/inst (Count)
system.switch_cpus.mmu.stage2_itb_walker.requestOrigin_Requested::total            0                       # Table walker requests started/completed, data/inst (Count)
system.switch_cpus.mmu.stage2_itb_walker.requestOrigin_Completed::Data            0                       # Table walker requests started/completed, data/inst (Count)
system.switch_cpus.mmu.stage2_itb_walker.requestOrigin_Completed::Inst            0                       # Table walker requests started/completed, data/inst (Count)
system.switch_cpus.mmu.stage2_itb_walker.requestOrigin_Completed::total            0                       # Table walker requests started/completed, data/inst (Count)
system.switch_cpus.mmu.stage2_itb_walker.requestOrigin::total            0                       # Table walker requests started/completed, data/inst (Count)
system.switch_cpus.mmu.stage2_itb_walker.power_state.pwrStateResidencyTicks::UNDEFINED  30340418000                       # Cumulative time (in ticks) in various power states (Tick)
system.switch_cpus.power_state.pwrStateResidencyTicks::OFF  30340418000                       # Cumulative time (in ticks) in various power states (Tick)
system.switch_cpus.rename.squashCycles        1295552                       # Number of cycles rename is squashing (Cycle)
system.switch_cpus.rename.idleCycles         28296803                       # Number of cycles rename is idle (Cycle)
system.switch_cpus.rename.blockCycles         2424388                       # Number of cycles rename is blocking (Cycle)
system.switch_cpus.rename.serializeStallCycles      1263364                       # count of cycles rename stalled for serializing inst (Cycle)
system.switch_cpus.rename.runCycles          26629446                       # Number of cycles rename is running (Cycle)
system.switch_cpus.rename.unblockCycles        106688                       # Number of cycles rename is unblocking (Cycle)
system.switch_cpus.rename.renamedInsts      163680903                       # Number of instructions processed by rename (Count)
system.switch_cpus.rename.ROBFullEvents          1107                       # Number of times rename has blocked due to ROB full (Count)
system.switch_cpus.rename.IQFullEvents          17145                       # Number of times rename has blocked due to IQ full (Count)
system.switch_cpus.rename.LQFullEvents           3587                       # Number of times rename has blocked due to LQ full (Count)
system.switch_cpus.rename.SQFullEvents          31616                       # Number of times rename has blocked due to SQ full (Count)
system.switch_cpus.rename.renamedOperands    168495236                       # Number of destination operands rename has renamed (Count)
system.switch_cpus.rename.lookups           240914421                       # Number of register rename lookups that rename has made (Count)
system.switch_cpus.rename.intLookups        169533860                       # Number of integer rename lookups (Count)
system.switch_cpus.rename.vecLookups          2054795                       # Number of vector rename lookups (Count)
system.switch_cpus.rename.vecPredLookups        43385                       # Number of vector predicate rename lookups (Count)
system.switch_cpus.rename.committedMaps     125769018                       # Number of HB maps that are committed (Count)
system.switch_cpus.rename.undoneMaps         42726225                       # Number of HB maps that are undone due to squashing (Count)
system.switch_cpus.rename.serializing           47375                       # count of serializing insts renamed (Count)
system.switch_cpus.rename.tempSerializing          176                       # count of temporary serializing insts renamed (Count)
system.switch_cpus.rename.skidInsts            547733                       # count of insts added to the skid buffer (Count)
system.switch_cpus.rob.reads                208832969                       # The number of ROB reads (Count)
system.switch_cpus.rob.writes               314950738                       # The number of ROB writes (Count)
system.switch_cpus.rob.squashedLoads          6989932                       # The number of load instructions squashed (Count)
system.switch_cpus.rob.squashedRMWLoads             0                       # The number of read-modify-write load instructions squashed (Count)
system.switch_cpus.rob.squashedRMWALoads            0                       # The number of atomic read-modify-write load instructions squashed (Count)
system.switch_cpus.rob.squashedStores         5286412                       # The number of store instructions squashed (Count)
system.switch_cpus.rob.squashedRMWStores            0                       # The number of read-modify-write store instructions squashed (Count)
system.switch_cpus.rob.squashedRMWAStores            0                       # The number of atomic read-modify-write store instructions squashed (Count)
system.switch_cpus.thread_0.numInsts        100000000                       # Number of Instructions committed (Count)
system.switch_cpus.thread_0.numOps          122810046                       # Number of Ops committed (Count)
system.switch_cpus.thread_0.numMemRefs              0                       # Number of Memory References (Count)
system.tol2bus.transDist::ReadResp             322173                       # Transaction distribution (Count)
system.tol2bus.transDist::WritebackDirty        99497                       # Transaction distribution (Count)
system.tol2bus.transDist::WritebackClean       252537                       # Transaction distribution (Count)
system.tol2bus.transDist::CleanEvict            48088                       # Transaction distribution (Count)
system.tol2bus.transDist::UpgradeReq             1358                       # Transaction distribution (Count)
system.tol2bus.transDist::UpgradeResp            1358                       # Transaction distribution (Count)
system.tol2bus.transDist::ReadExReq             56909                       # Transaction distribution (Count)
system.tol2bus.transDist::ReadExResp            56909                       # Transaction distribution (Count)
system.tol2bus.transDist::ReadCleanReq         255174                       # Transaction distribution (Count)
system.tol2bus.transDist::ReadSharedReq         66999                       # Transaction distribution (Count)
system.tol2bus.transDist::InvalidateReq          6582                       # Transaction distribution (Count)
system.tol2bus.transDist::InvalidateResp         6582                       # Transaction distribution (Count)
system.tol2bus.pktCount_system.cpu.icache.mem_side_port::system.l2.cpu_side_port       760448                       # Packet count per connected requestor and responder (Count)
system.tol2bus.pktCount_system.cpu.dcache.mem_side_port::system.l2.cpu_side_port       394065                       # Packet count per connected requestor and responder (Count)
system.tol2bus.pktCount::total                1154513                       # Packet count per connected requestor and responder (Count)
system.tol2bus.pktSize_system.cpu.icache.mem_side_port::system.l2.cpu_side_port     32337536                       # Cumulative packet size per connected requestor and responder (Byte)
system.tol2bus.pktSize_system.cpu.dcache.mem_side_port::system.l2.cpu_side_port     13433664                       # Cumulative packet size per connected requestor and responder (Byte)
system.tol2bus.pktSize::total                45771200                       # Cumulative packet size per connected requestor and responder (Byte)
system.tol2bus.snoops                           19653                       # Total snoops (Count)
system.tol2bus.snoopTraffic                   1020224                       # Total snoop traffic (Byte)
system.tol2bus.snoopFanout::samples            404238                       # Request fanout histogram (Count)
system.tol2bus.snoopFanout::mean             0.023338                       # Request fanout histogram (Count)
system.tol2bus.snoopFanout::stdev            0.151007                       # Request fanout histogram (Count)
system.tol2bus.snoopFanout::underflows              0      0.00%      0.00% # Request fanout histogram (Count)
system.tol2bus.snoopFanout::0                  394806     97.67%     97.67% # Request fanout histogram (Count)
system.tol2bus.snoopFanout::1                    9430      2.33%    100.00% # Request fanout histogram (Count)
system.tol2bus.snoopFanout::2                       2      0.00%    100.00% # Request fanout histogram (Count)
system.tol2bus.snoopFanout::overflows               0      0.00%    100.00% # Request fanout histogram (Count)
system.tol2bus.snoopFanout::min_value               0                       # Request fanout histogram (Count)
system.tol2bus.snoopFanout::max_value               2                       # Request fanout histogram (Count)
system.tol2bus.snoopFanout::total              404238                       # Request fanout histogram (Count)
system.tol2bus.power_state.pwrStateResidencyTicks::UNDEFINED  30340418000                       # Cumulative time (in ticks) in various power states (Tick)
system.tol2bus.reqLayer0.occupancy          723499489                       # Layer occupancy (ticks) (Tick)
system.tol2bus.reqLayer0.utilization              0.0                       # Layer utilization (Ratio)
system.tol2bus.respLayer0.occupancy         382792936                       # Layer occupancy (ticks) (Tick)
system.tol2bus.respLayer0.utilization             0.0                       # Layer utilization (Ratio)
system.tol2bus.respLayer1.occupancy         189967728                       # Layer occupancy (ticks) (Tick)
system.tol2bus.respLayer1.utilization             0.0                       # Layer utilization (Ratio)
system.tol2bus.snoop_filter.totRequests        769928                       # Total number of requests made to the snoop filter. (Count)
system.tol2bus.snoop_filter.hitSingleRequests       382894                       # Number of requests hitting in the snoop filter with a single holder of the requested data. (Count)
system.tol2bus.snoop_filter.hitMultiRequests         8100                       # Number of requests hitting in the snoop filter with multiple (>1) holders of the requested data. (Count)
system.tol2bus.snoop_filter.totSnoops            1376                       # Total number of snoops made to the snoop filter. (Count)
system.tol2bus.snoop_filter.hitSingleSnoops         1374                       # Number of snoops hitting in the snoop filter with a single holder of the requested data. (Count)
system.tol2bus.snoop_filter.hitMultiSnoops            2                       # Number of snoops hitting in the snoop filter with multiple (>1) holders of the requested data. (Count)
system.voltage_domain.voltage                       1                       # Voltage in Volts (Volt)
system.workload.inst.arm                            0                       # number of arm instructions executed (Count)
system.workload.inst.quiesce                        0                       # number of quiesce instructions executed (Count)

---------- End Simulation Statistics   ----------
