
---------- Begin Simulation Statistics ----------
simSeconds                                   0.305733                       # Number of seconds simulated (Second)
simTicks                                 305733315500                       # Number of ticks simulated (Tick)
finalTick                                305733315500                       # Number of ticks from beginning of simulation (restored from checkpoints and never reset) (Tick)
simFreq                                  1000000000000                       # The number of ticks per simulated second ((Tick/Second))
hostSeconds                                   7360.55                       # Real time elapsed on the host (Second)
hostTickRate                                 41536735                       # The number of ticks simulated per host second (ticks/s) ((Tick/Second))
hostMemory                                     649152                       # Number of bytes of host memory used (Byte)
simInsts                                    735703330                       # Number of instructions simulated (Count)
simOps                                      830131201                       # Number of ops (including micro ops) simulated (Count)
hostInstRate                                    99952                       # Simulator instruction rate (inst/s) ((Count/Second))
hostOpRate                                     112781                       # Simulator op (including micro ops) rate (op/s) ((Count/Second))
system.clk_domain.clock                          1000                       # Clock period in ticks (Tick)
system.cpu.numCycles                        611466632                       # Number of cpu cycles simulated (Cycle)
system.cpu.numWorkItemsStarted                      0                       # Number of work items this cpu started (Count)
system.cpu.numWorkItemsCompleted                    0                       # Number of work items this cpu completed (Count)
system.cpu.instsAdded                      1724510042                       # Number of instructions added to the IQ (excludes non-spec) (Count)
system.cpu.nonSpecInstsAdded                      174                       # Number of non-speculative instructions added to the IQ (Count)
system.cpu.instsIssued                     1344754497                       # Number of instructions issued (Count)
system.cpu.squashedInstsIssued               11900778                       # Number of squashed instructions issued (Count)
system.cpu.squashedInstsExamined            894379014                       # Number of squashed instructions iterated over during squash; mainly for profiling (Count)
system.cpu.squashedOperandsExamined        2184000635                       # Number of squashed operands that are examined and possibly removed from graph (Count)
system.cpu.squashedNonSpecRemoved                  89                       # Number of squashed non-spec instructions that were removed (Count)
system.cpu.numIssuedDist::samples           611412780                       # Number of insts issued each cycle (Count)
system.cpu.numIssuedDist::mean               2.199422                       # Number of insts issued each cycle (Count)
system.cpu.numIssuedDist::stdev              2.436264                       # Number of insts issued each cycle (Count)
system.cpu.numIssuedDist::underflows                0      0.00%      0.00% # Number of insts issued each cycle (Count)
system.cpu.numIssuedDist::0                 237604871     38.86%     38.86% # Number of insts issued each cycle (Count)
system.cpu.numIssuedDist::1                  87858461     14.37%     53.23% # Number of insts issued each cycle (Count)
system.cpu.numIssuedDist::2                  51784494      8.47%     61.70% # Number of insts issued each cycle (Count)
system.cpu.numIssuedDist::3                  49627042      8.12%     69.82% # Number of insts issued each cycle (Count)
system.cpu.numIssuedDist::4                  57890027      9.47%     79.29% # Number of insts issued each cycle (Count)
system.cpu.numIssuedDist::5                  54428755      8.90%     88.19% # Number of insts issued each cycle (Count)
system.cpu.numIssuedDist::6                  30660272      5.01%     93.20% # Number of insts issued each cycle (Count)
system.cpu.numIssuedDist::7                  26080819      4.27%     97.47% # Number of insts issued each cycle (Count)
system.cpu.numIssuedDist::8                   8583495      1.40%     98.87% # Number of insts issued each cycle (Count)
system.cpu.numIssuedDist::9                   4296437      0.70%     99.58% # Number of insts issued each cycle (Count)
system.cpu.numIssuedDist::10                  1840077      0.30%     99.88% # Number of insts issued each cycle (Count)
system.cpu.numIssuedDist::11                   629694      0.10%     99.98% # Number of insts issued each cycle (Count)
system.cpu.numIssuedDist::12                   118115      0.02%    100.00% # Number of insts issued each cycle (Count)
system.cpu.numIssuedDist::13                     9423      0.00%    100.00% # Number of insts issued each cycle (Count)
system.cpu.numIssuedDist::14                      472      0.00%    100.00% # Number of insts issued each cycle (Count)
system.cpu.numIssuedDist::15                      326      0.00%    100.00% # Number of insts issued each cycle (Count)
system.cpu.numIssuedDist::16                        0      0.00%    100.00% # Number of insts issued each cycle (Count)
system.cpu.numIssuedDist::17                        0      0.00%    100.00% # Number of insts issued each cycle (Count)
system.cpu.numIssuedDist::18                        0      0.00%    100.00% # Number of insts issued each cycle (Count)
system.cpu.numIssuedDist::19                        0      0.00%    100.00% # Number of insts issued each cycle (Count)
system.cpu.numIssuedDist::20                        0      0.00%    100.00% # Number of insts issued each cycle (Count)
system.cpu.numIssuedDist::21                        0      0.00%    100.00% # Number of insts issued each cycle (Count)
system.cpu.numIssuedDist::22                        0      0.00%    100.00% # Number of insts issued each cycle (Count)
system.cpu.numIssuedDist::23                        0      0.00%    100.00% # Number of insts issued each cycle (Count)
system.cpu.numIssuedDist::24                        0      0.00%    100.00% # Number of insts issued each cycle (Count)
system.cpu.numIssuedDist::overflows                 0      0.00%    100.00% # Number of insts issued each cycle (Count)
system.cpu.numIssuedDist::min_value                 0                       # Number of insts issued each cycle (Count)
system.cpu.numIssuedDist::max_value                15                       # Number of insts issued each cycle (Count)
system.cpu.numIssuedDist::total             611412780                       # Number of insts issued each cycle (Count)
system.cpu.statFuBusy::No_OpClass                   0      0.00%      0.00% # attempts to use FU when none available (Count)
system.cpu.statFuBusy::IntAlu                 1801532      2.01%      2.01% # attempts to use FU when none available (Count)
system.cpu.statFuBusy::IntMult                     25      0.00%      2.01% # attempts to use FU when none available (Count)
system.cpu.statFuBusy::IntDiv                       0      0.00%      2.01% # attempts to use FU when none available (Count)
system.cpu.statFuBusy::FloatAdd                 11286      0.01%      2.02% # attempts to use FU when none available (Count)
system.cpu.statFuBusy::FloatCmp                     5      0.00%      2.02% # attempts to use FU when none available (Count)
system.cpu.statFuBusy::FloatCvt                     4      0.00%      2.02% # attempts to use FU when none available (Count)
system.cpu.statFuBusy::FloatMult             11485685     12.79%     14.81% # attempts to use FU when none available (Count)
system.cpu.statFuBusy::FloatMultAcc           6290342      7.01%     21.82% # attempts to use FU when none available (Count)
system.cpu.statFuBusy::FloatDiv                  8550      0.01%     21.83% # attempts to use FU when none available (Count)
system.cpu.statFuBusy::FloatMisc              2610529      2.91%     24.74% # attempts to use FU when none available (Count)
system.cpu.statFuBusy::FloatSqrt                    0      0.00%     24.74% # attempts to use FU when none available (Count)
system.cpu.statFuBusy::SimdAdd                      0      0.00%     24.74% # attempts to use FU when none available (Count)
system.cpu.statFuBusy::SimdAddAcc                   0      0.00%     24.74% # attempts to use FU when none available (Count)
system.cpu.statFuBusy::SimdAlu                      0      0.00%     24.74% # attempts to use FU when none available (Count)
system.cpu.statFuBusy::SimdCmp                      0      0.00%     24.74% # attempts to use FU when none available (Count)
system.cpu.statFuBusy::SimdCvt                      0      0.00%     24.74% # attempts to use FU when none available (Count)
system.cpu.statFuBusy::SimdMisc                     0      0.00%     24.74% # attempts to use FU when none available (Count)
system.cpu.statFuBusy::SimdMult                     0      0.00%     24.74% # attempts to use FU when none available (Count)
system.cpu.statFuBusy::SimdMultAcc                  0      0.00%     24.74% # attempts to use FU when none available (Count)
system.cpu.statFuBusy::SimdShift                    0      0.00%     24.74% # attempts to use FU when none available (Count)
system.cpu.statFuBusy::SimdShiftAcc                 0      0.00%     24.74% # attempts to use FU when none available (Count)
system.cpu.statFuBusy::SimdDiv                      0      0.00%     24.74% # attempts to use FU when none available (Count)
system.cpu.statFuBusy::SimdSqrt                     0      0.00%     24.74% # attempts to use FU when none available (Count)
system.cpu.statFuBusy::SimdFloatAdd                 0      0.00%     24.74% # attempts to use FU when none available (Count)
system.cpu.statFuBusy::SimdFloatAlu                 0      0.00%     24.74% # attempts to use FU when none available (Count)
system.cpu.statFuBusy::SimdFloatCmp                 0      0.00%     24.74% # attempts to use FU when none available (Count)
system.cpu.statFuBusy::SimdFloatCvt                 0      0.00%     24.74% # attempts to use FU when none available (Count)
system.cpu.statFuBusy::SimdFloatDiv                 0      0.00%     24.74% # attempts to use FU when none available (Count)
system.cpu.statFuBusy::SimdFloatMisc                0      0.00%     24.74% # attempts to use FU when none available (Count)
system.cpu.statFuBusy::SimdFloatMult                0      0.00%     24.74% # attempts to use FU when none available (Count)
system.cpu.statFuBusy::SimdFloatMultAcc             0      0.00%     24.74% # attempts to use FU when none available (Count)
system.cpu.statFuBusy::SimdFloatSqrt                0      0.00%     24.74% # attempts to use FU when none available (Count)
system.cpu.statFuBusy::SimdReduceAdd                0      0.00%     24.74% # attempts to use FU when none available (Count)
system.cpu.statFuBusy::SimdReduceAlu                0      0.00%     24.74% # attempts to use FU when none available (Count)
system.cpu.statFuBusy::SimdReduceCmp                0      0.00%     24.74% # attempts to use FU when none available (Count)
system.cpu.statFuBusy::SimdFloatReduceAdd            0      0.00%     24.74% # attempts to use FU when none available (Count)
system.cpu.statFuBusy::SimdFloatReduceCmp            0      0.00%     24.74% # attempts to use FU when none available (Count)
system.cpu.statFuBusy::SimdAes                      0      0.00%     24.74% # attempts to use FU when none available (Count)
system.cpu.statFuBusy::SimdAesMix                   0      0.00%     24.74% # attempts to use FU when none available (Count)
system.cpu.statFuBusy::SimdSha1Hash                 0      0.00%     24.74% # attempts to use FU when none available (Count)
system.cpu.statFuBusy::SimdSha1Hash2                0      0.00%     24.74% # attempts to use FU when none available (Count)
system.cpu.statFuBusy::SimdSha256Hash               0      0.00%     24.74% # attempts to use FU when none available (Count)
system.cpu.statFuBusy::SimdSha256Hash2              0      0.00%     24.74% # attempts to use FU when none available (Count)
system.cpu.statFuBusy::SimdShaSigma2                0      0.00%     24.74% # attempts to use FU when none available (Count)
system.cpu.statFuBusy::SimdShaSigma3                0      0.00%     24.74% # attempts to use FU when none available (Count)
system.cpu.statFuBusy::SimdPredAlu                  0      0.00%     24.74% # attempts to use FU when none available (Count)
system.cpu.statFuBusy::MemRead               47394727     52.80%     77.53% # attempts to use FU when none available (Count)
system.cpu.statFuBusy::MemWrite              20167326     22.47%    100.00% # attempts to use FU when none available (Count)
system.cpu.statFuBusy::FloatMemRead                 0      0.00%    100.00% # attempts to use FU when none available (Count)
system.cpu.statFuBusy::FloatMemWrite                0      0.00%    100.00% # attempts to use FU when none available (Count)
system.cpu.statFuBusy::IprAccess                    0      0.00%    100.00% # attempts to use FU when none available (Count)
system.cpu.statFuBusy::InstPrefetch                 0      0.00%    100.00% # attempts to use FU when none available (Count)
system.cpu.statIssuedInstType_0::No_OpClass           96      0.00%      0.00% # Number of instructions issued per FU type, per thread (Count)
system.cpu.statIssuedInstType_0::IntAlu     440306340     32.74%     32.74% # Number of instructions issued per FU type, per thread (Count)
system.cpu.statIssuedInstType_0::IntMult        93722      0.01%     32.75% # Number of instructions issued per FU type, per thread (Count)
system.cpu.statIssuedInstType_0::IntDiv            12      0.00%     32.75% # Number of instructions issued per FU type, per thread (Count)
system.cpu.statIssuedInstType_0::FloatAdd     80581739      5.99%     38.74% # Number of instructions issued per FU type, per thread (Count)
system.cpu.statIssuedInstType_0::FloatCmp      2248697      0.17%     38.91% # Number of instructions issued per FU type, per thread (Count)
system.cpu.statIssuedInstType_0::FloatCvt      1606817      0.12%     39.03% # Number of instructions issued per FU type, per thread (Count)
system.cpu.statIssuedInstType_0::FloatMult    104700508      7.79%     46.81% # Number of instructions issued per FU type, per thread (Count)
system.cpu.statIssuedInstType_0::FloatMultAcc     85909392      6.39%     53.20% # Number of instructions issued per FU type, per thread (Count)
system.cpu.statIssuedInstType_0::FloatDiv      1504745      0.11%     53.31% # Number of instructions issued per FU type, per thread (Count)
system.cpu.statIssuedInstType_0::FloatMisc      6470097      0.48%     53.80% # Number of instructions issued per FU type, per thread (Count)
system.cpu.statIssuedInstType_0::FloatSqrt            0      0.00%     53.80% # Number of instructions issued per FU type, per thread (Count)
system.cpu.statIssuedInstType_0::SimdAdd           73      0.00%     53.80% # Number of instructions issued per FU type, per thread (Count)
system.cpu.statIssuedInstType_0::SimdAddAcc            0      0.00%     53.80% # Number of instructions issued per FU type, per thread (Count)
system.cpu.statIssuedInstType_0::SimdAlu           87      0.00%     53.80% # Number of instructions issued per FU type, per thread (Count)
system.cpu.statIssuedInstType_0::SimdCmp          144      0.00%     53.80% # Number of instructions issued per FU type, per thread (Count)
system.cpu.statIssuedInstType_0::SimdCvt            2      0.00%     53.80% # Number of instructions issued per FU type, per thread (Count)
system.cpu.statIssuedInstType_0::SimdMisc       666389      0.05%     53.85% # Number of instructions issued per FU type, per thread (Count)
system.cpu.statIssuedInstType_0::SimdMult            0      0.00%     53.85% # Number of instructions issued per FU type, per thread (Count)
system.cpu.statIssuedInstType_0::SimdMultAcc            0      0.00%     53.85% # Number of instructions issued per FU type, per thread (Count)
system.cpu.statIssuedInstType_0::SimdShift            0      0.00%     53.85% # Number of instructions issued per FU type, per thread (Count)
system.cpu.statIssuedInstType_0::SimdShiftAcc            0      0.00%     53.85% # Number of instructions issued per FU type, per thread (Count)
system.cpu.statIssuedInstType_0::SimdDiv            0      0.00%     53.85% # Number of instructions issued per FU type, per thread (Count)
system.cpu.statIssuedInstType_0::SimdSqrt            0      0.00%     53.85% # Number of instructions issued per FU type, per thread (Count)
system.cpu.statIssuedInstType_0::SimdFloatAdd            0      0.00%     53.85% # Number of instructions issued per FU type, per thread (Count)
system.cpu.statIssuedInstType_0::SimdFloatAlu            0      0.00%     53.85% # Number of instructions issued per FU type, per thread (Count)
system.cpu.statIssuedInstType_0::SimdFloatCmp            0      0.00%     53.85% # Number of instructions issued per FU type, per thread (Count)
system.cpu.statIssuedInstType_0::SimdFloatCvt            0      0.00%     53.85% # Number of instructions issued per FU type, per thread (Count)
system.cpu.statIssuedInstType_0::SimdFloatDiv            0      0.00%     53.85% # Number of instructions issued per FU type, per thread (Count)
system.cpu.statIssuedInstType_0::SimdFloatMisc            0      0.00%     53.85% # Number of instructions issued per FU type, per thread (Count)
system.cpu.statIssuedInstType_0::SimdFloatMult            0      0.00%     53.85% # Number of instructions issued per FU type, per thread (Count)
system.cpu.statIssuedInstType_0::SimdFloatMultAcc            0      0.00%     53.85% # Number of instructions issued per FU type, per thread (Count)
system.cpu.statIssuedInstType_0::SimdFloatSqrt            0      0.00%     53.85% # Number of instructions issued per FU type, per thread (Count)
system.cpu.statIssuedInstType_0::SimdReduceAdd            0      0.00%     53.85% # Number of instructions issued per FU type, per thread (Count)
system.cpu.statIssuedInstType_0::SimdReduceAlu            0      0.00%     53.85% # Number of instructions issued per FU type, per thread (Count)
system.cpu.statIssuedInstType_0::SimdReduceCmp            0      0.00%     53.85% # Number of instructions issued per FU type, per thread (Count)
system.cpu.statIssuedInstType_0::SimdFloatReduceAdd            0      0.00%     53.85% # Number of instructions issued per FU type, per thread (Count)
system.cpu.statIssuedInstType_0::SimdFloatReduceCmp            0      0.00%     53.85% # Number of instructions issued per FU type, per thread (Count)
system.cpu.statIssuedInstType_0::SimdAes            0      0.00%     53.85% # Number of instructions issued per FU type, per thread (Count)
system.cpu.statIssuedInstType_0::SimdAesMix            0      0.00%     53.85% # Number of instructions issued per FU type, per thread (Count)
system.cpu.statIssuedInstType_0::SimdSha1Hash            0      0.00%     53.85% # Number of instructions issued per FU type, per thread (Count)
system.cpu.statIssuedInstType_0::SimdSha1Hash2            0      0.00%     53.85% # Number of instructions issued per FU type, per thread (Count)
system.cpu.statIssuedInstType_0::SimdSha256Hash            0      0.00%     53.85% # Number of instructions issued per FU type, per thread (Count)
system.cpu.statIssuedInstType_0::SimdSha256Hash2            0      0.00%     53.85% # Number of instructions issued per FU type, per thread (Count)
system.cpu.statIssuedInstType_0::SimdShaSigma2            0      0.00%     53.85% # Number of instructions issued per FU type, per thread (Count)
system.cpu.statIssuedInstType_0::SimdShaSigma3            0      0.00%     53.85% # Number of instructions issued per FU type, per thread (Count)
system.cpu.statIssuedInstType_0::SimdPredAlu            0      0.00%     53.85% # Number of instructions issued per FU type, per thread (Count)
system.cpu.statIssuedInstType_0::MemRead    486451675     36.17%     90.02% # Number of instructions issued per FU type, per thread (Count)
system.cpu.statIssuedInstType_0::MemWrite    134213962      9.98%    100.00% # Number of instructions issued per FU type, per thread (Count)
system.cpu.statIssuedInstType_0::FloatMemRead            0      0.00%    100.00% # Number of instructions issued per FU type, per thread (Count)
system.cpu.statIssuedInstType_0::FloatMemWrite            0      0.00%    100.00% # Number of instructions issued per FU type, per thread (Count)
system.cpu.statIssuedInstType_0::IprAccess            0      0.00%    100.00% # Number of instructions issued per FU type, per thread (Count)
system.cpu.statIssuedInstType_0::InstPrefetch            0      0.00%    100.00% # Number of instructions issued per FU type, per thread (Count)
system.cpu.statIssuedInstType_0::total     1344754497                       # Number of instructions issued per FU type, per thread (Count)
system.cpu.issueRate                         2.199228                       # Inst issue rate ((Count/Cycle))
system.cpu.fuBusy                            89770011                       # FU busy when requested (Count)
system.cpu.fuBusyRate                        0.066756                       # FU busy rate (busy events/executed inst) ((Count/Count))
system.cpu.intInstQueueReads               1507858859                       # Number of integer instruction queue reads (Count)
system.cpu.intInstQueueWrites               674559477                       # Number of integer instruction queue writes (Count)
system.cpu.intInstQueueWakeupAccesses       421911568                       # Number of integer instruction queue wakeup accesses (Count)
system.cpu.fpInstQueueReads                         0                       # Number of floating instruction queue reads (Count)
system.cpu.fpInstQueueWrites                        0                       # Number of floating instruction queue writes (Count)
system.cpu.fpInstQueueWakeupAccesses                0                       # Number of floating instruction queue wakeup accesses (Count)
system.cpu.vecInstQueueReads               1894733704                       # Number of vector instruction queue reads (Count)
system.cpu.vecInstQueueWrites              1944350520                       # Number of vector instruction queue writes (Count)
system.cpu.vecInstQueueWakeupAccesses       734274474                       # Number of vector instruction queue wakeup accesses (Count)
system.cpu.intAluAccesses                   449763198                       # Number of integer alu accesses (Count)
system.cpu.fpAluAccesses                            0                       # Number of floating point alu accesses (Count)
system.cpu.vecAluAccesses                   984761214                       # Number of vector alu accesses (Count)
system.cpu.numInsts                        1261820774                       # Number of executed instructions (Count)
system.cpu.numLoadInsts                     453500641                       # Number of load instructions executed (Count)
system.cpu.numSquashedInsts                  82933723                       # Number of squashed instructions skipped in execute (Count)
system.cpu.numSwp                                   0                       # Number of swp insts executed (Count)
system.cpu.numNop                                 335                       # Number of nop insts executed (Count)
system.cpu.numRefs                          586115000                       # Number of memory reference insts executed (Count)
system.cpu.numBranches                       73285587                       # Number of branches executed (Count)
system.cpu.numStoreInsts                    132614359                       # Number of stores executed (Count)
system.cpu.numRate                           2.063597                       # Inst execution rate ((Count/Cycle))
system.cpu.timesIdled                             713                       # Number of times that the entire CPU went into an idle state and unscheduled itself (Count)
system.cpu.idleCycles                           53852                       # Total number of cycles that the CPU has spent unscheduled due to idling (Cycle)
system.cpu.committedInsts                   735703330                       # Number of Instructions Simulated (Count)
system.cpu.committedOps                     830131201                       # Number of Ops (including micro ops) Simulated (Count)
system.cpu.cpi                               0.831132                       # CPI: Cycles Per Instruction ((Cycle/Count))
system.cpu.totalCpi                          0.831132                       # CPI: Total CPI of All Threads ((Cycle/Count))
system.cpu.ipc                               1.203178                       # IPC: Instructions Per Cycle ((Count/Cycle))
system.cpu.totalIpc                          1.203178                       # IPC: Total IPC of All Threads ((Count/Cycle))
system.cpu.intRegfileReads                 1035238592                       # Number of integer regfile reads (Count)
system.cpu.intRegfileWrites                 313177659                       # Number of integer regfile writes (Count)
system.cpu.vecRegfileReads                 1363612419                       # number of vector regfile reads (Count)
system.cpu.ccRegfileReads                   205051564                       # number of cc regfile reads (Count)
system.cpu.ccRegfileWrites                  129196753                       # number of cc regfile writes (Count)
system.cpu.miscRegfileReads                2000608599                       # number of misc regfile reads (Count)
system.cpu.miscRegfileWrites                226761693                       # number of misc regfile writes (Count)
system.cpu.MemDepUnit__0<bad format>.insertedLoads    501805470                       # Number of loads inserted to the mem dependence unit. (Count)
system.cpu.MemDepUnit__0<bad format>.insertedStores    267198348                       # Number of stores inserted to the mem dependence unit. (Count)
system.cpu.MemDepUnit__0<bad format>.conflictingLoads       794884                       # Number of conflicting loads. (Count)
system.cpu.MemDepUnit__0<bad format>.conflictingStores      2146400                       # Number of conflicting stores. (Count)
system.cpu.MemDepUnit__0<bad format>.baseUsingStoreSetCheck    339517491                       # Number of times base case uses storeset (Count)
system.cpu.MemDepUnit__0<bad format>.BypassStoreSetCheck    429485692                       # Number of time we bypass storeset stores due to alias analysis (Count)
system.cpu.MemDepUnit__0<bad format>.SSITCollisions     14998312                       # Number of times two different PCs hash to the same SSIT entry within a clear period. (Count)
system.cpu.MemDepUnit__0<bad format>.SSITOverwrites           18                       # Number of times an existing SSIT entry is overwritten (Count)
system.cpu.MemDepUnit__0<bad format>.LFSTInvalidations      1181505                       # Number of times an issued store has to invalidate itself in LFST. (Count)
system.cpu.MemDepUnit__1<bad format>.insertedLoads            0                       # Number of loads inserted to the mem dependence unit. (Count)
system.cpu.MemDepUnit__1<bad format>.insertedStores            0                       # Number of stores inserted to the mem dependence unit. (Count)
system.cpu.MemDepUnit__1<bad format>.conflictingLoads            0                       # Number of conflicting loads. (Count)
system.cpu.MemDepUnit__1<bad format>.conflictingStores            0                       # Number of conflicting stores. (Count)
system.cpu.MemDepUnit__1<bad format>.baseUsingStoreSetCheck            0                       # Number of times base case uses storeset (Count)
system.cpu.MemDepUnit__1<bad format>.BypassStoreSetCheck            0                       # Number of time we bypass storeset stores due to alias analysis (Count)
system.cpu.MemDepUnit__1<bad format>.SSITCollisions            0                       # Number of times two different PCs hash to the same SSIT entry within a clear period. (Count)
system.cpu.MemDepUnit__1<bad format>.SSITOverwrites            0                       # Number of times an existing SSIT entry is overwritten (Count)
system.cpu.MemDepUnit__1<bad format>.LFSTInvalidations            0                       # Number of times an issued store has to invalidate itself in LFST. (Count)
system.cpu.MemDepUnit__2<bad format>.insertedLoads            0                       # Number of loads inserted to the mem dependence unit. (Count)
system.cpu.MemDepUnit__2<bad format>.insertedStores            0                       # Number of stores inserted to the mem dependence unit. (Count)
system.cpu.MemDepUnit__2<bad format>.conflictingLoads            0                       # Number of conflicting loads. (Count)
system.cpu.MemDepUnit__2<bad format>.conflictingStores            0                       # Number of conflicting stores. (Count)
system.cpu.MemDepUnit__2<bad format>.baseUsingStoreSetCheck            0                       # Number of times base case uses storeset (Count)
system.cpu.MemDepUnit__2<bad format>.BypassStoreSetCheck            0                       # Number of time we bypass storeset stores due to alias analysis (Count)
system.cpu.MemDepUnit__2<bad format>.SSITCollisions            0                       # Number of times two different PCs hash to the same SSIT entry within a clear period. (Count)
system.cpu.MemDepUnit__2<bad format>.SSITOverwrites            0                       # Number of times an existing SSIT entry is overwritten (Count)
system.cpu.MemDepUnit__2<bad format>.LFSTInvalidations            0                       # Number of times an issued store has to invalidate itself in LFST. (Count)
system.cpu.MemDepUnit__3<bad format>.insertedLoads            0                       # Number of loads inserted to the mem dependence unit. (Count)
system.cpu.MemDepUnit__3<bad format>.insertedStores            0                       # Number of stores inserted to the mem dependence unit. (Count)
system.cpu.MemDepUnit__3<bad format>.conflictingLoads            0                       # Number of conflicting loads. (Count)
system.cpu.MemDepUnit__3<bad format>.conflictingStores            0                       # Number of conflicting stores. (Count)
system.cpu.MemDepUnit__3<bad format>.baseUsingStoreSetCheck            0                       # Number of times base case uses storeset (Count)
system.cpu.MemDepUnit__3<bad format>.BypassStoreSetCheck            0                       # Number of time we bypass storeset stores due to alias analysis (Count)
system.cpu.MemDepUnit__3<bad format>.SSITCollisions            0                       # Number of times two different PCs hash to the same SSIT entry within a clear period. (Count)
system.cpu.MemDepUnit__3<bad format>.SSITOverwrites            0                       # Number of times an existing SSIT entry is overwritten (Count)
system.cpu.MemDepUnit__3<bad format>.LFSTInvalidations            0                       # Number of times an issued store has to invalidate itself in LFST. (Count)
system.cpu.StoreSet__0.insertedLoads        501805470                       # Number of loads inserted to the mem dependence unit. (Count)
system.cpu.StoreSet__0.insertedStores       267198348                       # Number of stores inserted to the mem dependence unit. (Count)
system.cpu.StoreSet__0.conflictingLoads        794884                       # Number of conflicting loads. (Count)
system.cpu.StoreSet__0.conflictingStores      2146400                       # Number of conflicting stores. (Count)
system.cpu.StoreSet__0.baseUsingStoreSetCheck    339517491                       # Number of times base case uses storeset (Count)
system.cpu.StoreSet__0.BypassStoreSetCheck    429485692                       # Number of time we bypass storeset stores due to alias analysis (Count)
system.cpu.StoreSet__0.SSITCollisions        14998312                       # Number of times two different PCs hash to the same SSIT entry within a clear period. (Count)
system.cpu.StoreSet__0.SSITOverwrites              18                       # Number of times an existing SSIT entry is overwritten (Count)
system.cpu.StoreSet__0.LFSTInvalidations      1181505                       # Number of times an issued store has to invalidate itself in LFST. (Count)
system.cpu.StoreSet__1.insertedLoads                0                       # Number of loads inserted to the mem dependence unit. (Count)
system.cpu.StoreSet__1.insertedStores               0                       # Number of stores inserted to the mem dependence unit. (Count)
system.cpu.StoreSet__1.conflictingLoads             0                       # Number of conflicting loads. (Count)
system.cpu.StoreSet__1.conflictingStores            0                       # Number of conflicting stores. (Count)
system.cpu.StoreSet__1.baseUsingStoreSetCheck            0                       # Number of times base case uses storeset (Count)
system.cpu.StoreSet__1.BypassStoreSetCheck            0                       # Number of time we bypass storeset stores due to alias analysis (Count)
system.cpu.StoreSet__1.SSITCollisions               0                       # Number of times two different PCs hash to the same SSIT entry within a clear period. (Count)
system.cpu.StoreSet__1.SSITOverwrites               0                       # Number of times an existing SSIT entry is overwritten (Count)
system.cpu.StoreSet__1.LFSTInvalidations            0                       # Number of times an issued store has to invalidate itself in LFST. (Count)
system.cpu.StoreSet__2.insertedLoads                0                       # Number of loads inserted to the mem dependence unit. (Count)
system.cpu.StoreSet__2.insertedStores               0                       # Number of stores inserted to the mem dependence unit. (Count)
system.cpu.StoreSet__2.conflictingLoads             0                       # Number of conflicting loads. (Count)
system.cpu.StoreSet__2.conflictingStores            0                       # Number of conflicting stores. (Count)
system.cpu.StoreSet__2.baseUsingStoreSetCheck            0                       # Number of times base case uses storeset (Count)
system.cpu.StoreSet__2.BypassStoreSetCheck            0                       # Number of time we bypass storeset stores due to alias analysis (Count)
system.cpu.StoreSet__2.SSITCollisions               0                       # Number of times two different PCs hash to the same SSIT entry within a clear period. (Count)
system.cpu.StoreSet__2.SSITOverwrites               0                       # Number of times an existing SSIT entry is overwritten (Count)
system.cpu.StoreSet__2.LFSTInvalidations            0                       # Number of times an issued store has to invalidate itself in LFST. (Count)
system.cpu.StoreSet__3.insertedLoads                0                       # Number of loads inserted to the mem dependence unit. (Count)
system.cpu.StoreSet__3.insertedStores               0                       # Number of stores inserted to the mem dependence unit. (Count)
system.cpu.StoreSet__3.conflictingLoads             0                       # Number of conflicting loads. (Count)
system.cpu.StoreSet__3.conflictingStores            0                       # Number of conflicting stores. (Count)
system.cpu.StoreSet__3.baseUsingStoreSetCheck            0                       # Number of times base case uses storeset (Count)
system.cpu.StoreSet__3.BypassStoreSetCheck            0                       # Number of time we bypass storeset stores due to alias analysis (Count)
system.cpu.StoreSet__3.SSITCollisions               0                       # Number of times two different PCs hash to the same SSIT entry within a clear period. (Count)
system.cpu.StoreSet__3.SSITOverwrites               0                       # Number of times an existing SSIT entry is overwritten (Count)
system.cpu.StoreSet__3.LFSTInvalidations            0                       # Number of times an issued store has to invalidate itself in LFST. (Count)
system.cpu.branchPred.lookups               112599663                       # Number of BP lookups (Count)
system.cpu.branchPred.condPredicted         108823280                       # Number of conditional branches predicted (Count)
system.cpu.branchPred.condIncorrect           1068676                       # Number of conditional branches incorrect (Count)
system.cpu.branchPred.BTBLookups            104819919                       # Number of BTB lookups (Count)
system.cpu.branchPred.BTBHits               104817414                       # Number of BTB hits (Count)
system.cpu.branchPred.BTBHitRatio            0.999976                       # BTB Hit Ratio (Ratio)
system.cpu.branchPred.RASUsed                 1545989                       # Number of times the RAS was used to get a target. (Count)
system.cpu.branchPred.RASIncorrect                  3                       # Number of incorrect RAS predictions. (Count)
system.cpu.branchPred.indirectLookups            3790                       # Number of indirect predictor lookups. (Count)
system.cpu.branchPred.indirectHits               2484                       # Number of indirect target hits. (Count)
system.cpu.branchPred.indirectMisses             1306                       # Number of indirect misses. (Count)
system.cpu.branchPred.indirectMispredicted          137                       # Number of mispredicted indirect branches. (Count)
system.cpu.commit.commitSquashedInsts       894378907                       # The number of squashed insts skipped by commit (Count)
system.cpu.commit.commitNonSpecStalls              85                       # The number of times commit has been forced to stall to communicate backwards (Count)
system.cpu.commit.branchMispredicts           1068145                       # The number of times a branch was mispredicted (Count)
system.cpu.commit.numCommittedDist::samples    552200910                       # Number of insts commited each cycle (Count)
system.cpu.commit.numCommittedDist::mean     1.503314                       # Number of insts commited each cycle (Count)
system.cpu.commit.numCommittedDist::stdev     3.387804                       # Number of insts commited each cycle (Count)
system.cpu.commit.numCommittedDist::underflows            0      0.00%      0.00% # Number of insts commited each cycle (Count)
system.cpu.commit.numCommittedDist::0       366669007     66.40%     66.40% # Number of insts commited each cycle (Count)
system.cpu.commit.numCommittedDist::1        50836055      9.21%     75.61% # Number of insts commited each cycle (Count)
system.cpu.commit.numCommittedDist::2        32126518      5.82%     81.43% # Number of insts commited each cycle (Count)
system.cpu.commit.numCommittedDist::3        10703293      1.94%     83.36% # Number of insts commited each cycle (Count)
system.cpu.commit.numCommittedDist::4        10308483      1.87%     85.23% # Number of insts commited each cycle (Count)
system.cpu.commit.numCommittedDist::5        50811645      9.20%     94.43% # Number of insts commited each cycle (Count)
system.cpu.commit.numCommittedDist::6         2989553      0.54%     94.97% # Number of insts commited each cycle (Count)
system.cpu.commit.numCommittedDist::7         3339113      0.60%     95.58% # Number of insts commited each cycle (Count)
system.cpu.commit.numCommittedDist::8          873137      0.16%     95.74% # Number of insts commited each cycle (Count)
system.cpu.commit.numCommittedDist::9         1267088      0.23%     95.97% # Number of insts commited each cycle (Count)
system.cpu.commit.numCommittedDist::10        1702409      0.31%     96.27% # Number of insts commited each cycle (Count)
system.cpu.commit.numCommittedDist::11       11026207      2.00%     98.27% # Number of insts commited each cycle (Count)
system.cpu.commit.numCommittedDist::12         186073      0.03%     98.30% # Number of insts commited each cycle (Count)
system.cpu.commit.numCommittedDist::13        1213207      0.22%     98.52% # Number of insts commited each cycle (Count)
system.cpu.commit.numCommittedDist::14            820      0.00%     98.52% # Number of insts commited each cycle (Count)
system.cpu.commit.numCommittedDist::15          88036      0.02%     98.54% # Number of insts commited each cycle (Count)
system.cpu.commit.numCommittedDist::16         588565      0.11%     98.65% # Number of insts commited each cycle (Count)
system.cpu.commit.numCommittedDist::17        2242078      0.41%     99.05% # Number of insts commited each cycle (Count)
system.cpu.commit.numCommittedDist::18          29283      0.01%     99.06% # Number of insts commited each cycle (Count)
system.cpu.commit.numCommittedDist::19          20996      0.00%     99.06% # Number of insts commited each cycle (Count)
system.cpu.commit.numCommittedDist::20         359561      0.07%     99.13% # Number of insts commited each cycle (Count)
system.cpu.commit.numCommittedDist::21         214751      0.04%     99.17% # Number of insts commited each cycle (Count)
system.cpu.commit.numCommittedDist::22         180407      0.03%     99.20% # Number of insts commited each cycle (Count)
system.cpu.commit.numCommittedDist::23          27944      0.01%     99.20% # Number of insts commited each cycle (Count)
system.cpu.commit.numCommittedDist::24        4396681      0.80%    100.00% # Number of insts commited each cycle (Count)
system.cpu.commit.numCommittedDist::overflows            0      0.00%    100.00% # Number of insts commited each cycle (Count)
system.cpu.commit.numCommittedDist::min_value            0                       # Number of insts commited each cycle (Count)
system.cpu.commit.numCommittedDist::max_value           24                       # Number of insts commited each cycle (Count)
system.cpu.commit.numCommittedDist::total    552200910                       # Number of insts commited each cycle (Count)
system.cpu.commit.instsCommitted            735703592                       # Number of instructions committed (Count)
system.cpu.commit.opsCommitted              830131463                       # Number of ops (including micro ops) committed (Count)
system.cpu.commit.memRefs                   363430743                       # Number of memory references committed (Count)
system.cpu.commit.loads                     231578359                       # Number of loads committed (Count)
system.cpu.commit.amos                             28                       # Number of atomic instructions committed (Count)
system.cpu.commit.membars                          34                       # Number of memory barriers committed (Count)
system.cpu.commit.branches                   36926993                       # Number of branches committed (Count)
system.cpu.commit.vectorInstructions        588652126                       # Number of committed Vector instructions. (Count)
system.cpu.commit.floating                          0                       # Number of committed floating point instructions. (Count)
system.cpu.commit.integer                   571399831                       # Number of committed integer instructions. (Count)
system.cpu.commit.functionCalls               1493808                       # Number of function calls committed. (Count)
system.cpu.commit.committedInstType_0::No_OpClass           90      0.00%      0.00% # Class of committed instruction (Count)
system.cpu.commit.committedInstType_0::IntAlu    235829618     28.41%     28.41% # Class of committed instruction (Count)
system.cpu.commit.committedInstType_0::IntMult        93705      0.01%     28.42% # Class of committed instruction (Count)
system.cpu.commit.committedInstType_0::IntDiv           10      0.00%     28.42% # Class of committed instruction (Count)
system.cpu.commit.committedInstType_0::FloatAdd     69499564      8.37%     36.79% # Class of committed instruction (Count)
system.cpu.commit.committedInstType_0::FloatCmp      1492614      0.18%     36.97% # Class of committed instruction (Count)
system.cpu.commit.committedInstType_0::FloatCvt      1589702      0.19%     37.16% # Class of committed instruction (Count)
system.cpu.commit.committedInstType_0::FloatMult     70245864      8.46%     45.63% # Class of committed instruction (Count)
system.cpu.commit.committedInstType_0::FloatMultAcc     80600832      9.71%     55.33% # Class of committed instruction (Count)
system.cpu.commit.committedInstType_0::FloatDiv      1496199      0.18%     55.52% # Class of committed instruction (Count)
system.cpu.commit.committedInstType_0::FloatMisc      5751643      0.69%     56.21% # Class of committed instruction (Count)
system.cpu.commit.committedInstType_0::FloatSqrt            0      0.00%     56.21% # Class of committed instruction (Count)
system.cpu.commit.committedInstType_0::SimdAdd           65      0.00%     56.21% # Class of committed instruction (Count)
system.cpu.commit.committedInstType_0::SimdAddAcc            0      0.00%     56.21% # Class of committed instruction (Count)
system.cpu.commit.committedInstType_0::SimdAlu           76      0.00%     56.21% # Class of committed instruction (Count)
system.cpu.commit.committedInstType_0::SimdCmp          125      0.00%     56.21% # Class of committed instruction (Count)
system.cpu.commit.committedInstType_0::SimdCvt            2      0.00%     56.21% # Class of committed instruction (Count)
system.cpu.commit.committedInstType_0::SimdMisc       100611      0.01%     56.22% # Class of committed instruction (Count)
system.cpu.commit.committedInstType_0::SimdMult            0      0.00%     56.22% # Class of committed instruction (Count)
system.cpu.commit.committedInstType_0::SimdMultAcc            0      0.00%     56.22% # Class of committed instruction (Count)
system.cpu.commit.committedInstType_0::SimdShift            0      0.00%     56.22% # Class of committed instruction (Count)
system.cpu.commit.committedInstType_0::SimdShiftAcc            0      0.00%     56.22% # Class of committed instruction (Count)
system.cpu.commit.committedInstType_0::SimdDiv            0      0.00%     56.22% # Class of committed instruction (Count)
system.cpu.commit.committedInstType_0::SimdSqrt            0      0.00%     56.22% # Class of committed instruction (Count)
system.cpu.commit.committedInstType_0::SimdFloatAdd            0      0.00%     56.22% # Class of committed instruction (Count)
system.cpu.commit.committedInstType_0::SimdFloatAlu            0      0.00%     56.22% # Class of committed instruction (Count)
system.cpu.commit.committedInstType_0::SimdFloatCmp            0      0.00%     56.22% # Class of committed instruction (Count)
system.cpu.commit.committedInstType_0::SimdFloatCvt            0      0.00%     56.22% # Class of committed instruction (Count)
system.cpu.commit.committedInstType_0::SimdFloatDiv            0      0.00%     56.22% # Class of committed instruction (Count)
system.cpu.commit.committedInstType_0::SimdFloatMisc            0      0.00%     56.22% # Class of committed instruction (Count)
system.cpu.commit.committedInstType_0::SimdFloatMult            0      0.00%     56.22% # Class of committed instruction (Count)
system.cpu.commit.committedInstType_0::SimdFloatMultAcc            0      0.00%     56.22% # Class of committed instruction (Count)
system.cpu.commit.committedInstType_0::SimdFloatSqrt            0      0.00%     56.22% # Class of committed instruction (Count)
system.cpu.commit.committedInstType_0::SimdReduceAdd            0      0.00%     56.22% # Class of committed instruction (Count)
system.cpu.commit.committedInstType_0::SimdReduceAlu            0      0.00%     56.22% # Class of committed instruction (Count)
system.cpu.commit.committedInstType_0::SimdReduceCmp            0      0.00%     56.22% # Class of committed instruction (Count)
system.cpu.commit.committedInstType_0::SimdFloatReduceAdd            0      0.00%     56.22% # Class of committed instruction (Count)
system.cpu.commit.committedInstType_0::SimdFloatReduceCmp            0      0.00%     56.22% # Class of committed instruction (Count)
system.cpu.commit.committedInstType_0::SimdAes            0      0.00%     56.22% # Class of committed instruction (Count)
system.cpu.commit.committedInstType_0::SimdAesMix            0      0.00%     56.22% # Class of committed instruction (Count)
system.cpu.commit.committedInstType_0::SimdSha1Hash            0      0.00%     56.22% # Class of committed instruction (Count)
system.cpu.commit.committedInstType_0::SimdSha1Hash2            0      0.00%     56.22% # Class of committed instruction (Count)
system.cpu.commit.committedInstType_0::SimdSha256Hash            0      0.00%     56.22% # Class of committed instruction (Count)
system.cpu.commit.committedInstType_0::SimdSha256Hash2            0      0.00%     56.22% # Class of committed instruction (Count)
system.cpu.commit.committedInstType_0::SimdShaSigma2            0      0.00%     56.22% # Class of committed instruction (Count)
system.cpu.commit.committedInstType_0::SimdShaSigma3            0      0.00%     56.22% # Class of committed instruction (Count)
system.cpu.commit.committedInstType_0::SimdPredAlu            0      0.00%     56.22% # Class of committed instruction (Count)
system.cpu.commit.committedInstType_0::MemRead    231578359     27.90%     84.12% # Class of committed instruction (Count)
system.cpu.commit.committedInstType_0::MemWrite    131852384     15.88%    100.00% # Class of committed instruction (Count)
system.cpu.commit.committedInstType_0::FloatMemRead            0      0.00%    100.00% # Class of committed instruction (Count)
system.cpu.commit.committedInstType_0::FloatMemWrite            0      0.00%    100.00% # Class of committed instruction (Count)
system.cpu.commit.committedInstType_0::IprAccess            0      0.00%    100.00% # Class of committed instruction (Count)
system.cpu.commit.committedInstType_0::InstPrefetch            0      0.00%    100.00% # Class of committed instruction (Count)
system.cpu.commit.committedInstType_0::total    830131463                       # Class of committed instruction (Count)
system.cpu.commit.commitEligibleSamples       4396681                       # number cycles where commit BW limit reached (Cycle)
system.cpu.dcache.demandHits::cpu.data      565100260                       # number of demand (read+write) hits (Count)
system.cpu.dcache.demandHits::total         565100260                       # number of demand (read+write) hits (Count)
system.cpu.dcache.overallHits::cpu.data     565100260                       # number of overall hits (Count)
system.cpu.dcache.overallHits::total        565100260                       # number of overall hits (Count)
system.cpu.dcache.demandMisses::cpu.data         7327                       # number of demand (read+write) misses (Count)
system.cpu.dcache.demandMisses::total            7327                       # number of demand (read+write) misses (Count)
system.cpu.dcache.overallMisses::cpu.data         7327                       # number of overall misses (Count)
system.cpu.dcache.overallMisses::total           7327                       # number of overall misses (Count)
system.cpu.dcache.demandMissLatency::cpu.data    367202221                       # number of demand (read+write) miss ticks (Tick)
system.cpu.dcache.demandMissLatency::total    367202221                       # number of demand (read+write) miss ticks (Tick)
system.cpu.dcache.overallMissLatency::cpu.data    367202221                       # number of overall miss ticks (Tick)
system.cpu.dcache.overallMissLatency::total    367202221                       # number of overall miss ticks (Tick)
system.cpu.dcache.demandAccesses::cpu.data    565107587                       # number of demand (read+write) accesses (Count)
system.cpu.dcache.demandAccesses::total     565107587                       # number of demand (read+write) accesses (Count)
system.cpu.dcache.overallAccesses::cpu.data    565107587                       # number of overall (read+write) accesses (Count)
system.cpu.dcache.overallAccesses::total    565107587                       # number of overall (read+write) accesses (Count)
system.cpu.dcache.demandMissRate::cpu.data     0.000013                       # miss rate for demand accesses (Ratio)
system.cpu.dcache.demandMissRate::total      0.000013                       # miss rate for demand accesses (Ratio)
system.cpu.dcache.overallMissRate::cpu.data     0.000013                       # miss rate for overall accesses (Ratio)
system.cpu.dcache.overallMissRate::total     0.000013                       # miss rate for overall accesses (Ratio)
system.cpu.dcache.demandAvgMissLatency::cpu.data 50116.312406                       # average overall miss latency in ticks ((Tick/Count))
system.cpu.dcache.demandAvgMissLatency::total 50116.312406                       # average overall miss latency in ticks ((Tick/Count))
system.cpu.dcache.overallAvgMissLatency::cpu.data 50116.312406                       # average overall miss latency ((Tick/Count))
system.cpu.dcache.overallAvgMissLatency::total 50116.312406                       # average overall miss latency ((Tick/Count))
system.cpu.dcache.blockedCycles::no_mshrs        23016                       # number of cycles access was blocked (Cycle)
system.cpu.dcache.blockedCycles::no_targets          166                       # number of cycles access was blocked (Cycle)
system.cpu.dcache.blockedCauses::no_mshrs         1023                       # number of times access was blocked (Count)
system.cpu.dcache.blockedCauses::no_targets            7                       # number of times access was blocked (Count)
system.cpu.dcache.avgBlocked::no_mshrs      22.498534                       # average number of cycles each access was blocked ((Cycle/Count))
system.cpu.dcache.avgBlocked::no_targets    23.714286                       # average number of cycles each access was blocked ((Cycle/Count))
system.cpu.dcache.writebacks::writebacks          355                       # number of writebacks (Count)
system.cpu.dcache.writebacks::total               355                       # number of writebacks (Count)
system.cpu.dcache.demandMshrHits::cpu.data         5716                       # number of demand (read+write) MSHR hits (Count)
system.cpu.dcache.demandMshrHits::total          5716                       # number of demand (read+write) MSHR hits (Count)
system.cpu.dcache.overallMshrHits::cpu.data         5716                       # number of overall MSHR hits (Count)
system.cpu.dcache.overallMshrHits::total         5716                       # number of overall MSHR hits (Count)
system.cpu.dcache.demandMshrMisses::cpu.data         1611                       # number of demand (read+write) MSHR misses (Count)
system.cpu.dcache.demandMshrMisses::total         1611                       # number of demand (read+write) MSHR misses (Count)
system.cpu.dcache.overallMshrMisses::cpu.data         1611                       # number of overall MSHR misses (Count)
system.cpu.dcache.overallMshrMisses::total         1611                       # number of overall MSHR misses (Count)
system.cpu.dcache.demandMshrMissLatency::cpu.data     83853748                       # number of demand (read+write) MSHR miss ticks (Tick)
system.cpu.dcache.demandMshrMissLatency::total     83853748                       # number of demand (read+write) MSHR miss ticks (Tick)
system.cpu.dcache.overallMshrMissLatency::cpu.data     83853748                       # number of overall MSHR miss ticks (Tick)
system.cpu.dcache.overallMshrMissLatency::total     83853748                       # number of overall MSHR miss ticks (Tick)
system.cpu.dcache.demandMshrMissRate::cpu.data     0.000003                       # mshr miss ratio for demand accesses (Ratio)
system.cpu.dcache.demandMshrMissRate::total     0.000003                       # mshr miss ratio for demand accesses (Ratio)
system.cpu.dcache.overallMshrMissRate::cpu.data     0.000003                       # mshr miss ratio for overall accesses (Ratio)
system.cpu.dcache.overallMshrMissRate::total     0.000003                       # mshr miss ratio for overall accesses (Ratio)
system.cpu.dcache.demandAvgMshrMissLatency::cpu.data 52050.743637                       # average overall mshr miss latency ((Tick/Count))
system.cpu.dcache.demandAvgMshrMissLatency::total 52050.743637                       # average overall mshr miss latency ((Tick/Count))
system.cpu.dcache.overallAvgMshrMissLatency::cpu.data 52050.743637                       # average overall mshr miss latency ((Tick/Count))
system.cpu.dcache.overallAvgMshrMissLatency::total 52050.743637                       # average overall mshr miss latency ((Tick/Count))
system.cpu.dcache.replacements                    596                       # number of replacements (Count)
system.cpu.dcache.LoadLockedReq.hits::cpu.data           10                       # number of LoadLockedReq hits (Count)
system.cpu.dcache.LoadLockedReq.hits::total           10                       # number of LoadLockedReq hits (Count)
system.cpu.dcache.LoadLockedReq.misses::cpu.data            2                       # number of LoadLockedReq misses (Count)
system.cpu.dcache.LoadLockedReq.misses::total            2                       # number of LoadLockedReq misses (Count)
system.cpu.dcache.LoadLockedReq.missLatency::cpu.data       107000                       # number of LoadLockedReq miss ticks (Tick)
system.cpu.dcache.LoadLockedReq.missLatency::total       107000                       # number of LoadLockedReq miss ticks (Tick)
system.cpu.dcache.LoadLockedReq.accesses::cpu.data           12                       # number of LoadLockedReq accesses(hits+misses) (Count)
system.cpu.dcache.LoadLockedReq.accesses::total           12                       # number of LoadLockedReq accesses(hits+misses) (Count)
system.cpu.dcache.LoadLockedReq.missRate::cpu.data     0.166667                       # miss rate for LoadLockedReq accesses (Ratio)
system.cpu.dcache.LoadLockedReq.missRate::total     0.166667                       # miss rate for LoadLockedReq accesses (Ratio)
system.cpu.dcache.LoadLockedReq.avgMissLatency::cpu.data        53500                       # average LoadLockedReq miss latency ((Tick/Count))
system.cpu.dcache.LoadLockedReq.avgMissLatency::total        53500                       # average LoadLockedReq miss latency ((Tick/Count))
system.cpu.dcache.LoadLockedReq.mshrHits::cpu.data            1                       # number of LoadLockedReq MSHR hits (Count)
system.cpu.dcache.LoadLockedReq.mshrHits::total            1                       # number of LoadLockedReq MSHR hits (Count)
system.cpu.dcache.LoadLockedReq.mshrMisses::cpu.data            1                       # number of LoadLockedReq MSHR misses (Count)
system.cpu.dcache.LoadLockedReq.mshrMisses::total            1                       # number of LoadLockedReq MSHR misses (Count)
system.cpu.dcache.LoadLockedReq.mshrMissLatency::cpu.data        78500                       # number of LoadLockedReq MSHR miss ticks (Tick)
system.cpu.dcache.LoadLockedReq.mshrMissLatency::total        78500                       # number of LoadLockedReq MSHR miss ticks (Tick)
system.cpu.dcache.LoadLockedReq.mshrMissRate::cpu.data     0.083333                       # mshr miss rate for LoadLockedReq accesses (Ratio)
system.cpu.dcache.LoadLockedReq.mshrMissRate::total     0.083333                       # mshr miss rate for LoadLockedReq accesses (Ratio)
system.cpu.dcache.LoadLockedReq.avgMshrMissLatency::cpu.data        78500                       # average LoadLockedReq mshr miss latency ((Tick/Count))
system.cpu.dcache.LoadLockedReq.avgMshrMissLatency::total        78500                       # average LoadLockedReq mshr miss latency ((Tick/Count))
system.cpu.dcache.ReadReq.hits::cpu.data    433253709                       # number of ReadReq hits (Count)
system.cpu.dcache.ReadReq.hits::total       433253709                       # number of ReadReq hits (Count)
system.cpu.dcache.ReadReq.misses::cpu.data         1456                       # number of ReadReq misses (Count)
system.cpu.dcache.ReadReq.misses::total          1456                       # number of ReadReq misses (Count)
system.cpu.dcache.ReadReq.missLatency::cpu.data     75597500                       # number of ReadReq miss ticks (Tick)
system.cpu.dcache.ReadReq.missLatency::total     75597500                       # number of ReadReq miss ticks (Tick)
system.cpu.dcache.ReadReq.accesses::cpu.data    433255165                       # number of ReadReq accesses(hits+misses) (Count)
system.cpu.dcache.ReadReq.accesses::total    433255165                       # number of ReadReq accesses(hits+misses) (Count)
system.cpu.dcache.ReadReq.missRate::cpu.data     0.000003                       # miss rate for ReadReq accesses (Ratio)
system.cpu.dcache.ReadReq.missRate::total     0.000003                       # miss rate for ReadReq accesses (Ratio)
system.cpu.dcache.ReadReq.avgMissLatency::cpu.data 51921.359890                       # average ReadReq miss latency ((Tick/Count))
system.cpu.dcache.ReadReq.avgMissLatency::total 51921.359890                       # average ReadReq miss latency ((Tick/Count))
system.cpu.dcache.ReadReq.mshrHits::cpu.data          976                       # number of ReadReq MSHR hits (Count)
system.cpu.dcache.ReadReq.mshrHits::total          976                       # number of ReadReq MSHR hits (Count)
system.cpu.dcache.ReadReq.mshrMisses::cpu.data          480                       # number of ReadReq MSHR misses (Count)
system.cpu.dcache.ReadReq.mshrMisses::total          480                       # number of ReadReq MSHR misses (Count)
system.cpu.dcache.ReadReq.mshrMissLatency::cpu.data     31061000                       # number of ReadReq MSHR miss ticks (Tick)
system.cpu.dcache.ReadReq.mshrMissLatency::total     31061000                       # number of ReadReq MSHR miss ticks (Tick)
system.cpu.dcache.ReadReq.mshrMissRate::cpu.data     0.000001                       # mshr miss rate for ReadReq accesses (Ratio)
system.cpu.dcache.ReadReq.mshrMissRate::total     0.000001                       # mshr miss rate for ReadReq accesses (Ratio)
system.cpu.dcache.ReadReq.avgMshrMissLatency::cpu.data 64710.416667                       # average ReadReq mshr miss latency ((Tick/Count))
system.cpu.dcache.ReadReq.avgMshrMissLatency::total 64710.416667                       # average ReadReq mshr miss latency ((Tick/Count))
system.cpu.dcache.StoreCondReq.hits::cpu.data            4                       # number of StoreCondReq hits (Count)
system.cpu.dcache.StoreCondReq.hits::total            4                       # number of StoreCondReq hits (Count)
system.cpu.dcache.StoreCondReq.accesses::cpu.data            4                       # number of StoreCondReq accesses(hits+misses) (Count)
system.cpu.dcache.StoreCondReq.accesses::total            4                       # number of StoreCondReq accesses(hits+misses) (Count)
system.cpu.dcache.SwapReq.hits::cpu.data           26                       # number of SwapReq hits (Count)
system.cpu.dcache.SwapReq.hits::total              26                       # number of SwapReq hits (Count)
system.cpu.dcache.SwapReq.misses::cpu.data            2                       # number of SwapReq misses (Count)
system.cpu.dcache.SwapReq.misses::total             2                       # number of SwapReq misses (Count)
system.cpu.dcache.SwapReq.missLatency::cpu.data       144500                       # number of SwapReq miss ticks (Tick)
system.cpu.dcache.SwapReq.missLatency::total       144500                       # number of SwapReq miss ticks (Tick)
system.cpu.dcache.SwapReq.accesses::cpu.data           28                       # number of SwapReq accesses(hits+misses) (Count)
system.cpu.dcache.SwapReq.accesses::total           28                       # number of SwapReq accesses(hits+misses) (Count)
system.cpu.dcache.SwapReq.missRate::cpu.data     0.071429                       # miss rate for SwapReq accesses (Ratio)
system.cpu.dcache.SwapReq.missRate::total     0.071429                       # miss rate for SwapReq accesses (Ratio)
system.cpu.dcache.SwapReq.avgMissLatency::cpu.data        72250                       # average SwapReq miss latency ((Tick/Count))
system.cpu.dcache.SwapReq.avgMissLatency::total        72250                       # average SwapReq miss latency ((Tick/Count))
system.cpu.dcache.SwapReq.mshrMisses::cpu.data            2                       # number of SwapReq MSHR misses (Count)
system.cpu.dcache.SwapReq.mshrMisses::total            2                       # number of SwapReq MSHR misses (Count)
system.cpu.dcache.SwapReq.mshrMissLatency::cpu.data       142500                       # number of SwapReq MSHR miss ticks (Tick)
system.cpu.dcache.SwapReq.mshrMissLatency::total       142500                       # number of SwapReq MSHR miss ticks (Tick)
system.cpu.dcache.SwapReq.mshrMissRate::cpu.data     0.071429                       # mshr miss rate for SwapReq accesses (Ratio)
system.cpu.dcache.SwapReq.mshrMissRate::total     0.071429                       # mshr miss rate for SwapReq accesses (Ratio)
system.cpu.dcache.SwapReq.avgMshrMissLatency::cpu.data        71250                       # average SwapReq mshr miss latency ((Tick/Count))
system.cpu.dcache.SwapReq.avgMshrMissLatency::total        71250                       # average SwapReq mshr miss latency ((Tick/Count))
system.cpu.dcache.WriteLineReq.hits::cpu.data          115                       # number of WriteLineReq hits (Count)
system.cpu.dcache.WriteLineReq.hits::total          115                       # number of WriteLineReq hits (Count)
system.cpu.dcache.WriteLineReq.misses::cpu.data          318                       # number of WriteLineReq misses (Count)
system.cpu.dcache.WriteLineReq.misses::total          318                       # number of WriteLineReq misses (Count)
system.cpu.dcache.WriteLineReq.missLatency::cpu.data      3694254                       # number of WriteLineReq miss ticks (Tick)
system.cpu.dcache.WriteLineReq.missLatency::total      3694254                       # number of WriteLineReq miss ticks (Tick)
system.cpu.dcache.WriteLineReq.accesses::cpu.data          433                       # number of WriteLineReq accesses(hits+misses) (Count)
system.cpu.dcache.WriteLineReq.accesses::total          433                       # number of WriteLineReq accesses(hits+misses) (Count)
system.cpu.dcache.WriteLineReq.missRate::cpu.data     0.734411                       # miss rate for WriteLineReq accesses (Ratio)
system.cpu.dcache.WriteLineReq.missRate::total     0.734411                       # miss rate for WriteLineReq accesses (Ratio)
system.cpu.dcache.WriteLineReq.avgMissLatency::cpu.data 11617.150943                       # average WriteLineReq miss latency ((Tick/Count))
system.cpu.dcache.WriteLineReq.avgMissLatency::total 11617.150943                       # average WriteLineReq miss latency ((Tick/Count))
system.cpu.dcache.WriteLineReq.mshrMisses::cpu.data          318                       # number of WriteLineReq MSHR misses (Count)
system.cpu.dcache.WriteLineReq.mshrMisses::total          318                       # number of WriteLineReq MSHR misses (Count)
system.cpu.dcache.WriteLineReq.mshrMissLatency::cpu.data      3376254                       # number of WriteLineReq MSHR miss ticks (Tick)
system.cpu.dcache.WriteLineReq.mshrMissLatency::total      3376254                       # number of WriteLineReq MSHR miss ticks (Tick)
system.cpu.dcache.WriteLineReq.mshrMissRate::cpu.data     0.734411                       # mshr miss rate for WriteLineReq accesses (Ratio)
system.cpu.dcache.WriteLineReq.mshrMissRate::total     0.734411                       # mshr miss rate for WriteLineReq accesses (Ratio)
system.cpu.dcache.WriteLineReq.avgMshrMissLatency::cpu.data 10617.150943                       # average WriteLineReq mshr miss latency ((Tick/Count))
system.cpu.dcache.WriteLineReq.avgMshrMissLatency::total 10617.150943                       # average WriteLineReq mshr miss latency ((Tick/Count))
system.cpu.dcache.WriteReq.hits::cpu.data    131846436                       # number of WriteReq hits (Count)
system.cpu.dcache.WriteReq.hits::total      131846436                       # number of WriteReq hits (Count)
system.cpu.dcache.WriteReq.misses::cpu.data         5553                       # number of WriteReq misses (Count)
system.cpu.dcache.WriteReq.misses::total         5553                       # number of WriteReq misses (Count)
system.cpu.dcache.WriteReq.missLatency::cpu.data    287910467                       # number of WriteReq miss ticks (Tick)
system.cpu.dcache.WriteReq.missLatency::total    287910467                       # number of WriteReq miss ticks (Tick)
system.cpu.dcache.WriteReq.accesses::cpu.data    131851989                       # number of WriteReq accesses(hits+misses) (Count)
system.cpu.dcache.WriteReq.accesses::total    131851989                       # number of WriteReq accesses(hits+misses) (Count)
system.cpu.dcache.WriteReq.missRate::cpu.data     0.000042                       # miss rate for WriteReq accesses (Ratio)
system.cpu.dcache.WriteReq.missRate::total     0.000042                       # miss rate for WriteReq accesses (Ratio)
system.cpu.dcache.WriteReq.avgMissLatency::cpu.data 51847.734018                       # average WriteReq miss latency ((Tick/Count))
system.cpu.dcache.WriteReq.avgMissLatency::total 51847.734018                       # average WriteReq miss latency ((Tick/Count))
system.cpu.dcache.WriteReq.mshrHits::cpu.data         4740                       # number of WriteReq MSHR hits (Count)
system.cpu.dcache.WriteReq.mshrHits::total         4740                       # number of WriteReq MSHR hits (Count)
system.cpu.dcache.WriteReq.mshrMisses::cpu.data          813                       # number of WriteReq MSHR misses (Count)
system.cpu.dcache.WriteReq.mshrMisses::total          813                       # number of WriteReq MSHR misses (Count)
system.cpu.dcache.WriteReq.mshrMissLatency::cpu.data     49416494                       # number of WriteReq MSHR miss ticks (Tick)
system.cpu.dcache.WriteReq.mshrMissLatency::total     49416494                       # number of WriteReq MSHR miss ticks (Tick)
system.cpu.dcache.WriteReq.mshrMissRate::cpu.data     0.000006                       # mshr miss rate for WriteReq accesses (Ratio)
system.cpu.dcache.WriteReq.mshrMissRate::total     0.000006                       # mshr miss rate for WriteReq accesses (Ratio)
system.cpu.dcache.WriteReq.avgMshrMissLatency::cpu.data 60782.895449                       # average WriteReq mshr miss latency ((Tick/Count))
system.cpu.dcache.WriteReq.avgMshrMissLatency::total 60782.895449                       # average WriteReq mshr miss latency ((Tick/Count))
system.cpu.dcache.power_state.pwrStateResidencyTicks::UNDEFINED 305733315500                       # Cumulative time (in ticks) in various power states (Tick)
system.cpu.dcache.tags.tagsInUse          1016.917959                       # Average ticks per tags in use ((Tick/Count))
system.cpu.dcache.tags.totalRefs            565101914                       # Total number of references to valid blocks. (Count)
system.cpu.dcache.tags.sampledRefs               1614                       # Sample count of references to valid blocks. (Count)
system.cpu.dcache.tags.avgRefs           350125.101611                       # Average number of references to valid blocks. ((Count/Count))
system.cpu.dcache.tags.warmupTick              193000                       # The tick when the warmup percentage was hit. (Tick)
system.cpu.dcache.tags.occupancies::cpu.data  1016.917959                       # Average occupied blocks per tick, per requestor ((Count/Tick))
system.cpu.dcache.tags.avgOccs::cpu.data     0.993084                       # Average percentage of cache occupancy ((Ratio/Tick))
system.cpu.dcache.tags.avgOccs::total        0.993084                       # Average percentage of cache occupancy ((Ratio/Tick))
system.cpu.dcache.tags.occupanciesTaskId::1024         1018                       # Occupied blocks per task id (Count)
system.cpu.dcache.tags.ageTaskId_1024::0           49                       # Occupied blocks per task id, per block age (Count)
system.cpu.dcache.tags.ageTaskId_1024::1           52                       # Occupied blocks per task id, per block age (Count)
system.cpu.dcache.tags.ageTaskId_1024::4          917                       # Occupied blocks per task id, per block age (Count)
system.cpu.dcache.tags.ratioOccsTaskId::1024     0.994141                       # Ratio of occupied blocks and all blocks, per task id (Ratio)
system.cpu.dcache.tags.tagAccesses         1130216876                       # Number of tag accesses (Count)
system.cpu.dcache.tags.dataAccesses        1130216876                       # Number of data accesses (Count)
system.cpu.dcache.tags.power_state.pwrStateResidencyTicks::UNDEFINED 305733315500                       # Cumulative time (in ticks) in various power states (Tick)
system.cpu.decode.idleCycles                239758377                       # Number of cycles decode is idle (Cycle)
system.cpu.decode.blockedCycles             108103298                       # Number of cycles decode is blocked (Cycle)
system.cpu.decode.runCycles                 221082195                       # Number of cycles decode is running (Cycle)
system.cpu.decode.unblockCycles               9945899                       # Number of cycles decode is unblocking (Cycle)
system.cpu.decode.squashCycles               32523011                       # Number of cycles decode is squashing (Cycle)
system.cpu.decode.branchResolved            102549553                       # Number of times decode resolved a branch (Count)
system.cpu.decode.branchMispred                   547                       # Number of times decode detected a branch misprediction (Count)
system.cpu.decode.decodedInsts             2286627956                       # Number of instructions handled by decode (Count)
system.cpu.decode.squashedInsts                   749                       # Number of squashed instructions handled by decode (Count)
system.cpu.fetch.icacheStallCycles          270181568                       # Number of cycles fetch is stalled on an Icache miss (Cycle)
system.cpu.fetch.insts                     2210673654                       # Number of instructions fetch has processed (Count)
system.cpu.fetch.branches                   112599663                       # Number of branches that fetch encountered (Count)
system.cpu.fetch.predictedBranches          106365887                       # Number of branches that fetch has predicted taken (Count)
system.cpu.fetch.cycles                     308707637                       # Number of cycles fetch has run and was not squashing or blocked (Cycle)
system.cpu.fetch.squashCycles                65047084                       # Number of cycles fetch has spent squashing (Cycle)
system.cpu.fetch.miscStallCycles                    1                       # Number of cycles fetch has spent waiting on interrupts, or bad addresses, or out of MSHRs (Cycle)
system.cpu.fetch.icacheWaitRetryStallCycles           32                       # Number of stall cycles due to full MSHR (Cycle)
system.cpu.fetch.cacheLines                 261149901                       # Number of cache lines fetched (Count)
system.cpu.fetch.icacheSquashes               7290888                       # Number of outstanding Icache misses that were squashed (Count)
system.cpu.fetch.nisnDist::samples          611412780                       # Number of instructions fetched each cycle (Total) (Count)
system.cpu.fetch.nisnDist::mean              3.916243                       # Number of instructions fetched each cycle (Total) (Count)
system.cpu.fetch.nisnDist::stdev             5.986360                       # Number of instructions fetched each cycle (Total) (Count)
system.cpu.fetch.nisnDist::underflows               0      0.00%      0.00% # Number of instructions fetched each cycle (Total) (Count)
system.cpu.fetch.nisnDist::0                361294716     59.09%     59.09% # Number of instructions fetched each cycle (Total) (Count)
system.cpu.fetch.nisnDist::1                 14468329      2.37%     61.46% # Number of instructions fetched each cycle (Total) (Count)
system.cpu.fetch.nisnDist::2                 22477417      3.68%     65.13% # Number of instructions fetched each cycle (Total) (Count)
system.cpu.fetch.nisnDist::3                 12372457      2.02%     67.16% # Number of instructions fetched each cycle (Total) (Count)
system.cpu.fetch.nisnDist::4                 12439572      2.03%     69.19% # Number of instructions fetched each cycle (Total) (Count)
system.cpu.fetch.nisnDist::5                 18236323      2.98%     72.18% # Number of instructions fetched each cycle (Total) (Count)
system.cpu.fetch.nisnDist::6                  6863294      1.12%     73.30% # Number of instructions fetched each cycle (Total) (Count)
system.cpu.fetch.nisnDist::7                 12395528      2.03%     75.33% # Number of instructions fetched each cycle (Total) (Count)
system.cpu.fetch.nisnDist::8                 28720537      4.70%     80.02% # Number of instructions fetched each cycle (Total) (Count)
system.cpu.fetch.nisnDist::9                  6717426      1.10%     81.12% # Number of instructions fetched each cycle (Total) (Count)
system.cpu.fetch.nisnDist::10                10107522      1.65%     82.77% # Number of instructions fetched each cycle (Total) (Count)
system.cpu.fetch.nisnDist::11                11063698      1.81%     84.58% # Number of instructions fetched each cycle (Total) (Count)
system.cpu.fetch.nisnDist::12                  588457      0.10%     84.68% # Number of instructions fetched each cycle (Total) (Count)
system.cpu.fetch.nisnDist::13                 8589169      1.40%     86.08% # Number of instructions fetched each cycle (Total) (Count)
system.cpu.fetch.nisnDist::14                10618907      1.74%     87.82% # Number of instructions fetched each cycle (Total) (Count)
system.cpu.fetch.nisnDist::15                 9235709      1.51%     89.33% # Number of instructions fetched each cycle (Total) (Count)
system.cpu.fetch.nisnDist::16                34445456      5.63%     94.97% # Number of instructions fetched each cycle (Total) (Count)
system.cpu.fetch.nisnDist::17                23134545      3.78%     98.75% # Number of instructions fetched each cycle (Total) (Count)
system.cpu.fetch.nisnDist::18                  468422      0.08%     98.83% # Number of instructions fetched each cycle (Total) (Count)
system.cpu.fetch.nisnDist::19                 1759736      0.29%     99.11% # Number of instructions fetched each cycle (Total) (Count)
system.cpu.fetch.nisnDist::20                  831599      0.14%     99.25% # Number of instructions fetched each cycle (Total) (Count)
system.cpu.fetch.nisnDist::21                  752164      0.12%     99.37% # Number of instructions fetched each cycle (Total) (Count)
system.cpu.fetch.nisnDist::22                  193732      0.03%     99.40% # Number of instructions fetched each cycle (Total) (Count)
[...]
system.mem_ctrls.dram.bwRead::cpu.inst         248897                       # Total read bandwidth from this memory ((Byte/Second))
system.mem_ctrls.dram.bwRead::cpu.data         262503                       # Total read bandwidth from this memory ((Byte/Second))
system.mem_ctrls.dram.bwRead::total            511400                       # Total read bandwidth from this memory ((Byte/Second))
system.mem_ctrls.dram.bwInstRead::cpu.inst       248897                       # Instruction read bandwidth from this memory ((Byte/Second))
system.mem_ctrls.dram.bwInstRead::total        248897                       # Instruction read bandwidth from this memory ((Byte/Second))
system.mem_ctrls.dram.bwWrite::writebacks        74313                       # Write bandwidth from this memory ((Byte/Second))
system.mem_ctrls.dram.bwWrite::total            74313                       # Write bandwidth from this memory ((Byte/Second))
system.mem_ctrls.dram.bwTotal::writebacks        74313                       # Total bandwidth to/from this memory ((Byte/Second))
system.mem_ctrls.dram.bwTotal::cpu.inst        248897                       # Total bandwidth to/from this memory ((Byte/Second))
system.mem_ctrls.dram.bwTotal::cpu.data        262503                       # Total bandwidth to/from this memory ((Byte/Second))
system.mem_ctrls.dram.bwTotal::total           585713                       # Total bandwidth to/from this memory ((Byte/Second))
system.mem_ctrls.dram.readBursts                 2360                       # Number of DRAM read bursts (Count)
system.mem_ctrls.dram.writeBursts                 989                       # Number of DRAM write bursts (Count)
system.mem_ctrls.dram.perBankRdBursts::0          250                       # Per bank write bursts (Count)
system.mem_ctrls.dram.perBankRdBursts::1          124                       # Per bank write bursts (Count)
system.mem_ctrls.dram.perBankRdBursts::2          103                       # Per bank write bursts (Count)
system.mem_ctrls.dram.perBankRdBursts::3           84                       # Per bank write bursts (Count)
system.mem_ctrls.dram.perBankRdBursts::4          102                       # Per bank write bursts (Count)
system.mem_ctrls.dram.perBankRdBursts::5          102                       # Per bank write bursts (Count)
system.mem_ctrls.dram.perBankRdBursts::6          146                       # Per bank write bursts (Count)
system.mem_ctrls.dram.perBankRdBursts::7           24                       # Per bank write bursts (Count)
system.mem_ctrls.dram.perBankRdBursts::8          116                       # Per bank write bursts (Count)
system.mem_ctrls.dram.perBankRdBursts::9           45                       # Per bank write bursts (Count)
system.mem_ctrls.dram.perBankRdBursts::10          163                       # Per bank write bursts (Count)
system.mem_ctrls.dram.perBankRdBursts::11          171                       # Per bank write bursts (Count)
system.mem_ctrls.dram.perBankRdBursts::12          286                       # Per bank write bursts (Count)
system.mem_ctrls.dram.perBankRdBursts::13          289                       # Per bank write bursts (Count)
system.mem_ctrls.dram.perBankRdBursts::14          173                       # Per bank write bursts (Count)
system.mem_ctrls.dram.perBankRdBursts::15          182                       # Per bank write bursts (Count)
system.mem_ctrls.dram.perBankWrBursts::0           91                       # Per bank write bursts (Count)
system.mem_ctrls.dram.perBankWrBursts::1           49                       # Per bank write bursts (Count)
system.mem_ctrls.dram.perBankWrBursts::2           32                       # Per bank write bursts (Count)
system.mem_ctrls.dram.perBankWrBursts::3           47                       # Per bank write bursts (Count)
system.mem_ctrls.dram.perBankWrBursts::4           79                       # Per bank write bursts (Count)
system.mem_ctrls.dram.perBankWrBursts::5           45                       # Per bank write bursts (Count)
system.mem_ctrls.dram.perBankWrBursts::6           83                       # Per bank write bursts (Count)
system.mem_ctrls.dram.perBankWrBursts::7            8                       # Per bank write bursts (Count)
system.mem_ctrls.dram.perBankWrBursts::8           82                       # Per bank write bursts (Count)
system.mem_ctrls.dram.perBankWrBursts::9           46                       # Per bank write bursts (Count)
system.mem_ctrls.dram.perBankWrBursts::10           73                       # Per bank write bursts (Count)
system.mem_ctrls.dram.perBankWrBursts::11           46                       # Per bank write bursts (Count)
system.mem_ctrls.dram.perBankWrBursts::12           61                       # Per bank write bursts (Count)
system.mem_ctrls.dram.perBankWrBursts::13          111                       # Per bank write bursts (Count)
system.mem_ctrls.dram.perBankWrBursts::14          110                       # Per bank write bursts (Count)
system.mem_ctrls.dram.perBankWrBursts::15           26                       # Per bank write bursts (Count)
system.mem_ctrls.dram.totQLat                32587000                       # Total ticks spent queuing (Tick)
system.mem_ctrls.dram.totBusLat              11800000                       # Total ticks spent in databus transfers (Tick)
system.mem_ctrls.dram.totMemAccLat           76837000                       # Total ticks spent from burst creation until serviced by the DRAM (Tick)
system.mem_ctrls.dram.avgQLat                13808.05                       # Average queueing delay per DRAM burst ((Tick/Count))
system.mem_ctrls.dram.avgBusLat               5000.00                       # Average bus latency per DRAM burst ((Tick/Count))
system.mem_ctrls.dram.avgMemAccLat           32558.05                       # Average memory access latency per DRAM burst ((Tick/Count))
system.mem_ctrls.dram.readRowHits                1897                       # Number of row buffer hits during reads (Count)
system.mem_ctrls.dram.writeRowHits                750                       # Number of row buffer hits during writes (Count)
system.mem_ctrls.dram.readRowHitRate            80.38                       # Row buffer hit rate for reads (Ratio)
system.mem_ctrls.dram.writeRowHitRate           75.83                       # Row buffer hit rate for writes (Ratio)
system.mem_ctrls.dram.bytesPerActivate::samples          689                       # Bytes accessed per row activation (Byte)
system.mem_ctrls.dram.bytesPerActivate::mean   305.602322                       # Bytes accessed per row activation (Byte)
system.mem_ctrls.dram.bytesPerActivate::gmean   191.077322                       # Bytes accessed per row activation (Byte)
system.mem_ctrls.dram.bytesPerActivate::stdev   311.401985                       # Bytes accessed per row activation (Byte)
system.mem_ctrls.dram.bytesPerActivate::0-127          212     30.77%     30.77% # Bytes accessed per row activation (Byte)
system.mem_ctrls.dram.bytesPerActivate::128-255          190     27.58%     58.35% # Bytes accessed per row activation (Byte)
system.mem_ctrls.dram.bytesPerActivate::256-383           91     13.21%     71.55% # Bytes accessed per row activation (Byte)
system.mem_ctrls.dram.bytesPerActivate::384-511           62      9.00%     80.55% # Bytes accessed per row activation (Byte)
system.mem_ctrls.dram.bytesPerActivate::512-639           24      3.48%     84.03% # Bytes accessed per row activation (Byte)
system.mem_ctrls.dram.bytesPerActivate::640-767           10      1.45%     85.49% # Bytes accessed per row activation (Byte)
system.mem_ctrls.dram.bytesPerActivate::768-895           14      2.03%     87.52% # Bytes accessed per row activation (Byte)
system.mem_ctrls.dram.bytesPerActivate::896-1023           14      2.03%     89.55% # Bytes accessed per row activation (Byte)
system.mem_ctrls.dram.bytesPerActivate::1024-1151           72     10.45%    100.00% # Bytes accessed per row activation (Byte)
system.mem_ctrls.dram.bytesPerActivate::total          689                       # Bytes accessed per row activation (Byte)
system.mem_ctrls.dram.bytesRead                151040                       # Total bytes read (Byte)
system.mem_ctrls.dram.bytesWritten              63296                       # Total bytes written (Byte)
system.mem_ctrls.dram.avgRdBW                0.494025                       # Average DRAM read bandwidth in MiBytes/s ((Byte/Second))
system.mem_ctrls.dram.avgWrBW                0.207030                       # Average DRAM write bandwidth in MiBytes/s ((Byte/Second))
system.mem_ctrls.dram.peakBW                 12800.00                       # Theoretical peak bandwidth in MiByte/s ((Byte/Second))
system.mem_ctrls.dram.busUtil                    0.01                       # Data bus utilization in percentage (Ratio)
system.mem_ctrls.dram.busUtilRead                0.00                       # Data bus utilization in percentage for reads (Ratio)
system.mem_ctrls.dram.busUtilWrite               0.00                       # Data bus utilization in percentage for writes (Ratio)
system.mem_ctrls.dram.pageHitRate               79.04                       # Row buffer hit rate, read and write combined (Ratio)
system.mem_ctrls.dram.power_state.pwrStateResidencyTicks::UNDEFINED 305733315500                       # Cumulative time (in ticks) in various power states (Tick)
system.mem_ctrls.dram.rank0.actEnergy         2463300                       # Energy for activate commands per rank (pJ) (Joule)
system.mem_ctrls.dram.rank0.preEnergy         1286505                       # Energy for precharge commands per rank (pJ) (Joule)
system.mem_ctrls.dram.rank0.readEnergy        6675900                       # Energy for read commands per rank (pJ) (Joule)
system.mem_ctrls.dram.rank0.writeEnergy       2265480                       # Energy for write commands per rank (pJ) (Joule)
system.mem_ctrls.dram.rank0.refreshEnergy 24133839600.000004                       # Energy for refresh commands per rank (pJ) (Joule)
system.mem_ctrls.dram.rank0.actBackEnergy   4462224480                       # Energy for active background per rank (pJ) (Joule)
system.mem_ctrls.dram.rank0.preBackEnergy 113643930720                       # Energy for precharge background per rank (pJ) (Joule)
system.mem_ctrls.dram.rank0.actPowerDownEnergy            0                       # Energy for active power-down per rank (pJ) (Joule)
system.mem_ctrls.dram.rank0.prePowerDownEnergy            0                       # Energy for precharge power-down per rank (pJ) (Joule)
system.mem_ctrls.dram.rank0.selfRefreshEnergy            0                       # Energy for self refresh per rank (pJ) (Joule)
system.mem_ctrls.dram.rank0.totalEnergy  142252685985                       # Total energy per rank (pJ) (Joule)
system.mem_ctrls.dram.rank0.averagePower   465.283562                       # Core power per rank (mW) (Watt)
system.mem_ctrls.dram.rank0.totalIdleTime            0                       # Total Idle time Per DRAM Rank (Tick)
system.mem_ctrls.dram.rank0.pwrStateTime::IDLE 295407603500                       # Time in different power states (Tick)
system.mem_ctrls.dram.rank0.pwrStateTime::REF  10208900000                       # Time in different power states (Tick)
system.mem_ctrls.dram.rank0.pwrStateTime::SREF            0                       # Time in different power states (Tick)
system.mem_ctrls.dram.rank0.pwrStateTime::PRE_PDN            0                       # Time in different power states (Tick)
system.mem_ctrls.dram.rank0.pwrStateTime::ACT    116812000                       # Time in different power states (Tick)
system.mem_ctrls.dram.rank0.pwrStateTime::ACT_PDN            0                       # Time in different power states (Tick)
system.mem_ctrls.dram.rank1.actEnergy         2548980                       # Energy for activate commands per rank (pJ) (Joule)
system.mem_ctrls.dram.rank1.preEnergy         1328250                       # Energy for precharge commands per rank (pJ) (Joule)
system.mem_ctrls.dram.rank1.readEnergy       10167360                       # Energy for read commands per rank (pJ) (Joule)
system.mem_ctrls.dram.rank1.writeEnergy       2897100                       # Energy for write commands per rank (pJ) (Joule)
system.mem_ctrls.dram.rank1.refreshEnergy 24133839600.000004                       # Energy for refresh commands per rank (pJ) (Joule)
system.mem_ctrls.dram.rank1.actBackEnergy   4464604800                       # Energy for active background per rank (pJ) (Joule)
system.mem_ctrls.dram.rank1.preBackEnergy 113641926240                       # Energy for precharge background per rank (pJ) (Joule)
system.mem_ctrls.dram.rank1.actPowerDownEnergy            0                       # Energy for active power-down per rank (pJ) (Joule)
system.mem_ctrls.dram.rank1.prePowerDownEnergy            0                       # Energy for precharge power-down per rank (pJ) (Joule)
system.mem_ctrls.dram.rank1.selfRefreshEnergy            0                       # Energy for self refresh per rank (pJ) (Joule)
system.mem_ctrls.dram.rank1.totalEnergy  142257312330                       # Total energy per rank (pJ) (Joule)
system.mem_ctrls.dram.rank1.averagePower   465.298694                       # Core power per rank (mW) (Watt)
system.mem_ctrls.dram.rank1.totalIdleTime            0                       # Total Idle time Per DRAM Rank (Tick)
system.mem_ctrls.dram.rank1.pwrStateTime::IDLE 295402200500                       # Time in different power states (Tick)
system.mem_ctrls.dram.rank1.pwrStateTime::REF  10208900000                       # Time in different power states (Tick)
system.mem_ctrls.dram.rank1.pwrStateTime::SREF            0                       # Time in different power states (Tick)
system.mem_ctrls.dram.rank1.pwrStateTime::PRE_PDN            0                       # Time in different power states (Tick)
system.mem_ctrls.dram.rank1.pwrStateTime::ACT    122215000                       # Time in different power states (Tick)
system.mem_ctrls.dram.rank1.pwrStateTime::ACT_PDN            0                       # Time in different power states (Tick)
system.mem_ctrls.power_state.pwrStateResidencyTicks::UNDEFINED 305733315500                       # Cumulative time (in ticks) in various power states (Tick)
system.membus.transDist::ReadResp                1669                       # Transaction distribution (Count)
system.membus.transDist::WritebackDirty           355                       # Transaction distribution (Count)
system.membus.transDist::WritebackClean           683                       # Transaction distribution (Count)
system.membus.transDist::CleanEvict               241                       # Transaction distribution (Count)
system.membus.transDist::ReadExReq                773                       # Transaction distribution (Count)
system.membus.transDist::ReadExResp               773                       # Transaction distribution (Count)
system.membus.transDist::ReadCleanReq            1190                       # Transaction distribution (Count)
system.membus.transDist::ReadSharedReq            481                       # Transaction distribution (Count)
system.membus.transDist::InvalidateReq            360                       # Transaction distribution (Count)
system.membus.pktCount_system.cpu.icache.mem_side_port::system.mem_ctrls.port         3061                       # Packet count per connected requestor and responder (Count)
system.membus.pktCount_system.cpu.dcache.mem_side_port::system.mem_ctrls.port         3464                       # Packet count per connected requestor and responder (Count)
system.membus.pktCount::total                    6525                       # Packet count per connected requestor and responder (Count)
system.membus.pktSize_system.cpu.icache.mem_side_port::system.mem_ctrls.port       119744                       # Cumulative packet size per connected requestor and responder (Byte)
system.membus.pktSize_system.cpu.dcache.mem_side_port::system.mem_ctrls.port       102976                       # Cumulative packet size per connected requestor and responder (Byte)
system.membus.pktSize::total                   222720                       # Cumulative packet size per connected requestor and responder (Byte)
system.membus.snoops                                0                       # Total snoops (Count)
system.membus.snoopTraffic                          0                       # Total snoop traffic (Byte)
system.membus.snoopFanout::samples               2804                       # Request fanout histogram (Count)
system.membus.snoopFanout::mean              0.001070                       # Request fanout histogram (Count)
system.membus.snoopFanout::stdev             0.032698                       # Request fanout histogram (Count)
system.membus.snoopFanout::underflows               0      0.00%      0.00% # Request fanout histogram (Count)
system.membus.snoopFanout::0                     2801     99.89%     99.89% # Request fanout histogram (Count)
system.membus.snoopFanout::1                        3      0.11%    100.00% # Request fanout histogram (Count)
system.membus.snoopFanout::2                        0      0.00%    100.00% # Request fanout histogram (Count)
system.membus.snoopFanout::overflows                0      0.00%    100.00% # Request fanout histogram (Count)
system.membus.snoopFanout::min_value                0                       # Request fanout histogram (Count)
system.membus.snoopFanout::max_value                1                       # Request fanout histogram (Count)
system.membus.snoopFanout::total                 2804                       # Request fanout histogram (Count)
system.membus.power_state.pwrStateResidencyTicks::UNDEFINED 305733315500                       # Cumulative time (in ticks) in various power states (Tick)
system.membus.reqLayer0.occupancy             8689500                       # Layer occupancy (ticks) (Tick)
system.membus.reqLayer0.utilization               0.0                       # Layer utilization (Ratio)
system.membus.respLayer1.occupancy            6310500                       # Layer occupancy (ticks) (Tick)
system.membus.respLayer1.utilization              0.0                       # Layer utilization (Ratio)
system.membus.respLayer2.occupancy            6586750                       # Layer occupancy (ticks) (Tick)
system.membus.respLayer2.utilization              0.0                       # Layer utilization (Ratio)
system.membus.snoop_filter.totRequests           4083                       # Total number of requests made to the snoop filter. (Count)
system.membus.snoop_filter.hitSingleRequests         1281                       # Number of requests hitting in the snoop filter with a single holder of the requested data. (Count)
system.membus.snoop_filter.hitMultiRequests            1                       # Number of requests hitting in the snoop filter with multiple (>1) holders of the requested data. (Count)
system.membus.snoop_filter.totSnoops                0                       # Total number of snoops made to the snoop filter. (Count)
system.membus.snoop_filter.hitSingleSnoops            0                       # Number of snoops hitting in the snoop filter with a single holder of the requested data. (Count)
system.membus.snoop_filter.hitMultiSnoops            0                       # Number of snoops hitting in the snoop filter with multiple (>1) holders of the requested data. (Count)
system.voltage_domain.voltage                       1                       # Voltage in Volts (Volt)
system.workload.inst.arm                            0                       # number of arm instructions executed (Count)
system.workload.inst.quiesce                        0                       # number of quiesce instructions executed (Count)

---------- End Simulation Statistics   ----------
